
 ===================================================
  XFOIL Version 6.99
  Copyright (C) 2000   Mark Drela, Harold Youngren

  This software comes with ABSOLUTELY NO WARRANTY,
    subject to the GNU General Public License.

  Caveat computor
 ===================================================

 File  xfoil.def  not found

   QUIT    Exit program

  .OPER    Direct operating point(s)
  .MDES    Complex mapping design routine
  .QDES    Surface speed design routine
  .GDES    Geometry design routine

   SAVE f  Write airfoil to labeled coordinate file
   PSAV f  Write airfoil to plain coordinate file
   ISAV f  Write airfoil to ISES coordinate file
   MSAV f  Write airfoil to MSES coordinate file
   REVE    Reverse written-airfoil node ordering

   LOAD f  Read buffer airfoil from coordinate file
   NACA i  Set NACA 4,5-digit airfoil and buffer airfoil
   INTE    Set buffer airfoil by interpolating two airfoils
   NORM    Buffer airfoil normalization toggle
   XYCM rr Change CM reference location, currently  0.25000 0.00000

   BEND    Display structural properties of current airfoil

   PCOP    Set current-airfoil panel nodes directly from buffer airfoil points
   PANE    Set current-airfoil panel nodes ( 160 ) based on curvature
  .PPAR    Show/change paneling

  .PLOP    Plotting options

   WDEF f  Write  current-settings file
   RDEF f  Reread current-settings file
   NAME s  Specify new airfoil name
   NINC    Increment name version number

   Z       Zoom    | (available in all menus)
   U       Unzoom  | 

 XFOIL   c>   Max thickness =     0.090026  at x =   0.300
 Max camber    =    -0.000000  at x =   0.017

 Buffer airfoil set using 331 points

 Blunt trailing edge.  Gap =  0.00189

 Paneling parameters used...
   Number of panel nodes       160
   Panel bunching parameter    1.000
   TE/LE panel density ratio   0.150
   Refined-area/LE panel density ratio    0.200
   Top    side refined area x/c limits  1.000 1.000
   Bottom side refined area x/c limits  1.000 1.000

 XFOIL   c>  
 Blunt trailing edge.  Gap =  0.00189

 Paneling parameters used...
   Number of panel nodes       160
   Panel bunching parameter    1.000
   TE/LE panel density ratio   0.150
   Refined-area/LE panel density ratio    0.200
   Top    side refined area x/c limits  1.000 1.000
   Bottom side refined area x/c limits  1.000 1.000

 XFOIL   c>   N    command not recognized.  Type a "?" for list

 XFOIL   c>   2000 command not recognized.  Type a "?" for list

 XFOIL   c>  
 XFOIL   c>  
 XFOIL   c>  
.OPERi   c>   Current iteration limit:          10

Enter new iteration limit   i>  
.OPERi   c>  
 XFOIL   c>  
 XFOIL   c>  
 XFOIL   c>  
.OPERi   c>  
.OPERi   c>  
.OPERi   c>  
 M  =    0.0000
 Re =     60000

.OPERv   c>  
 Polar  1 newly created for accumulation
 Airfoil archived with polar: NACA 0009                                       

Enter  polar save filename  OR  <return> for no file   s>  
 Polar save file will NOT be written

Enter  polar dump filename  OR  <return> for no file   s>  
 Polar dump file will NOT be written

 Polar accumulation enabled

.OPERva   c>   Calculating unit vorticity distributions ...
 Calculating wake trajectory ...
 Calculating source influence matrix ...

 Solving BL system ...

 Initializing BL ...
    side            1  ...
 MRCHUE: Inverse mode at  66     Hk =   3.800
 MRCHUE: Inverse mode at  67     Hk =   3.961
 MRCHUE: Inverse mode at  68     Hk =   4.120
 MRCHUE: Inverse mode at  69     Hk =   4.277
 MRCHUE: Inverse mode at  70     Hk =   4.432
 MRCHUE: Inverse mode at  71     Hk =   4.585
 MRCHUE: Inverse mode at  72     Hk =   4.736
 MRCHUE: Inverse mode at  73     Hk =   4.886
 MRCHUE: Inverse mode at  74     Hk =   5.034
 MRCHUE: Inverse mode at  75     Hk =   5.180
 MRCHUE: Inverse mode at  76     Hk =   5.323
 MRCHUE: Inverse mode at  77     Hk =   5.460
 MRCHUE: Convergence failed at  78  side 1    Res =  0.1988E+01
 MRCHUE: Inverse mode at  79     Hk =   5.563
 MRCHUE: Inverse mode at  80     Hk =   5.618
    side            2  ...
 MRCHUE: Inverse mode at  58     Hk =   3.832
 MRCHUE: Inverse mode at  59     Hk =   4.007
 MRCHUE: Inverse mode at  60     Hk =   4.179
 MRCHUE: Inverse mode at  61     Hk =   4.349
 MRCHUE: Inverse mode at  62     Hk =   4.516
 MRCHUE: Inverse mode at  63     Hk =   4.681
 MRCHUE: Inverse mode at  64     Hk =   4.844
 MRCHUE: Inverse mode at  65     Hk =   5.005
 MRCHUE: Inverse mode at  66     Hk =   5.164
 MRCHUE: Inverse mode at  67     Hk =   5.322
 MRCHUE: Inverse mode at  68     Hk =   5.478
 MRCHUE: Inverse mode at  69     Hk =   5.633
 MRCHUE: Inverse mode at  70     Hk =   5.786
 MRCHUE: Inverse mode at  71     Hk =   5.938
 MRCHUE: Inverse mode at  72     Hk =   6.089
 MRCHUE: Inverse mode at  73     Hk =   6.238
 MRCHUE: Inverse mode at  74     Hk =   6.386
 MRCHUE: Inverse mode at  75     Hk =   6.533
 MRCHUE: Inverse mode at  76     Hk =   6.679
 MRCHUE: Inverse mode at  77     Hk =   6.824
 MRCHUE: Inverse mode at  78     Hk =   6.965
 MRCHUE: Inverse mode at  79     Hk =   7.102
 MRCHUE: Inverse mode at  80     Hk =   7.226
 MRCHUE: Inverse mode at  81     Hk =   7.329
 MRCHUE: Inverse mode at  82     Hk =   7.383
 MRCHUE: Inverse mode at  84     Hk =   4.891
 MRCHUE: Inverse mode at  85     Hk =   4.047
 MRCHUE: Inverse mode at  86     Hk =   3.524
 MRCHUE: Inverse mode at  87     Hk =   3.161

 Side 1 forced transition at x/c =  1.0000   80
 Side 2 forced transition at x/c =  1.0000   82

   1   rms: 0.3117E+00   max: 0.2338E+01   D at   88  2   RLX: 0.503
       a = -1.000      CL = -0.0772
      Cm = -0.0020     CD =  0.00933   =>   CDf =  0.00896    CDp =  0.00037

 Side 1 forced transition at x/c =  1.0000   80
 Side 2 forced transition at x/c =  1.0000   82

   2   rms: 0.1275E+00   max: 0.8397E+00   D at   90  2
       a = -1.000      CL = -0.0561
      Cm = -0.0077     CD =  0.01384   =>   CDf =  0.00950    CDp =  0.00434

 Side 1 forced transition at x/c =  1.0000   80
 Side 2 forced transition at x/c =  1.0000   82

   3   rms: 0.2615E-01   max: -.1508E+00   D at   92  2
       a = -1.000      CL = -0.0454
      Cm = -0.0092     CD =  0.01540   =>   CDf =  0.00958    CDp =  0.00582

 Side 1 forced transition at x/c =  1.0000   80
 Side 2 forced transition at x/c =  1.0000   82

   4   rms: 0.2568E-02   max: -.2198E-01   D at   92  2
       a = -1.000      CL = -0.0449
      Cm = -0.0092     CD =  0.01549   =>   CDf =  0.00950    CDp =  0.00599

 Side 1 forced transition at x/c =  1.0000   80
 Side 2 forced transition at x/c =  1.0000   82

   5   rms: 0.3441E-04   max: -.5319E-03   D at   92  2
       a = -1.000      CL = -0.0449
      Cm = -0.0092     CD =  0.01549   =>   CDf =  0.00949    CDp =  0.00600
 plradd ia,ip,cpol            1          79  5.65502793E-02

 Point added to stored polar  1
 Save file unspecified or not available
 Dump file unspecified or not available

.OPERva   c>  
.OPERva   c>  
.OPERva   c>   Calculating wake trajectory ...
 Calculating source influence matrix ...

 Solving BL system ...

 Side 1 forced transition at x/c =  1.0000   80
 Side 2 forced transition at x/c =  1.0000   82
 idif Ue xi dudx           1  0.23232606      1.71411037E-03   135.53740    
 Uenew xinew           2  1.77730492E-03  1.31130219E-05

   1   rms: 0.1439E+00   max: 0.3775E+00   D at   73  2   RLX: 0.775
       a = -2.000      CL = -0.0844
      Cm = -0.0148     CD =  0.01608   =>   CDf =  0.00945    CDp =  0.00663

 Side 1 forced transition at x/c =  1.0000   79
 Side 2 forced transition at x/c =  1.0000   83

   2   rms: 0.1615E+00   max: 0.2744E+01   T at    2  2   RLX: 0.457
       a = -2.000      CL = -0.0943
      Cm = -0.0138     CD =  0.01647   =>   CDf =  0.00949    CDp =  0.00698

 Side 1 forced transition at x/c =  1.0000   79
 Side 2 forced transition at x/c =  1.0000   83

   3   rms: 0.3214E-01   max: 0.1594E+00   D at    4  2
       a = -2.000      CL = -0.1012
      Cm = -0.0138     CD =  0.01701   =>   CDf =  0.00942    CDp =  0.00759

 Side 1 forced transition at x/c =  1.0000   79
 Side 2 forced transition at x/c =  1.0000   83

   4   rms: 0.3222E-02   max: 0.1464E-01   D at   59  2
       a = -2.000      CL = -0.1006
      Cm = -0.0137     CD =  0.01712   =>   CDf =  0.00933    CDp =  0.00780

 Side 1 forced transition at x/c =  1.0000   79
 Side 2 forced transition at x/c =  1.0000   83

   5   rms: 0.7992E-04   max: -.5000E-03   D at   85  2
       a = -2.000      CL = -0.1006
      Cm = -0.0137     CD =  0.01713   =>   CDf =  0.00932    CDp =  0.00782
 plradd ia,ip,cpol            2          78  2.83128973E-02

 Point added to stored polar  1
 Save file unspecified or not available
 Dump file unspecified or not available

.OPERva   c>  
.OPERva   c>  
.OPERva   c>   Calculating wake trajectory ...
 Calculating source influence matrix ...

 Solving BL system ...

 Side 1 forced transition at x/c =  1.0000   79
 Side 2 forced transition at x/c =  1.0000   83

   1   rms: 0.1680E+00   max: 0.4801E+00   D at   64  2   RLX: 0.838
       a = -3.000      CL = -0.1486
      Cm = -0.0152     CD =  0.01885   =>   CDf =  0.00932    CDp =  0.00953

 Side 1 forced transition at x/c =  1.0000   79
 Side 2  free  transition at x/c =  0.9081   76
 idif Ue xi dudx           1  0.36741263      3.05247307E-03   120.36556    
 Uenew xinew           2  0.14789198      1.22869015E-03

   2   rms: 0.2123E+00   max: -.7341E+00   D at   95  2   RLX: 0.681
       a = -3.000      CL = -0.2626
      Cm =  0.0006     CD =  0.02180   =>   CDf =  0.00904    CDp =  0.01276

 Side 1 forced transition at x/c =  1.0000   78
 Side 2  free  transition at x/c =  0.8847   76
 idif Ue xi dudx           1  0.24826735      2.26151943E-03   109.77901    
 Uenew xinew           2  3.10677718E-02  2.83002853E-04

   3   rms: 0.1463E+00   max: -.6353E+00   D at   84  2   RLX: 0.787
       a = -3.000      CL = -0.3520
      Cm =  0.0142     CD =  0.01958   =>   CDf =  0.00849    CDp =  0.01109

 Side 1 forced transition at x/c =  1.0000   77
 Side 2  free  transition at x/c =  0.8762   76

   4   rms: 0.6609E-01   max: 0.4054E+00   C at   77  1
       a = -3.000      CL = -0.3962
      Cm =  0.0214     CD =  0.01765   =>   CDf =  0.00820    CDp =  0.00945

 Side 1 forced transition at x/c =  1.0000   77
 Side 2  free  transition at x/c =  0.8678   76

   5   rms: 0.5357E-02   max: 0.3630E-01   D at   92  2
       a = -3.000      CL = -0.3939
      Cm =  0.0208     CD =  0.01771   =>   CDf =  0.00796    CDp =  0.00975

 Side 1 forced transition at x/c =  1.0000   77
 Side 2  free  transition at x/c =  0.8685   76

   6   rms: 0.1286E-03   max: 0.1577E-02   C at   77  1
       a = -3.000      CL = -0.3940
      Cm =  0.0208     CD =  0.01771   =>   CDf =  0.00796    CDp =  0.00975

 Side 1 forced transition at x/c =  1.0000   77
 Side 2  free  transition at x/c =  0.8684   76

   7   rms: 0.5065E-05   max: -.2502E-04   D at   83  2
       a = -3.000      CL = -0.3940
      Cm =  0.0208     CD =  0.01771   =>   CDf =  0.00796    CDp =  0.00975
 plradd ia,ip,cpol            3          76  7.26519758E-03

 Point added to stored polar  1
 Save file unspecified or not available
 Dump file unspecified or not available

.OPERva   c>  
.OPERva   c>  
.OPERva   c>   Calculating wake trajectory ...
 Calculating source influence matrix ...

 Solving BL system ...

 Side 1 forced transition at x/c =  1.0000   77
 Side 2  free  transition at x/c =  0.8684   76
 idif Ue xi dudx           1  0.20663185      2.24649906E-03   91.979500    
 Uenew xinew           2  6.67756982E-03  7.25984573E-05

   1   rms: 0.4418E+00   max: -.1764E+01   D at   82  2   RLX: 0.284
       a = -4.000      CL = -0.4823
      Cm =  0.0266     CD =  0.01652   =>   CDf =  0.00777    CDp =  0.00875

 MRCHDU: Convergence failed at  79  side 2    Res =  0.1605E+01
 MRCHDU: Convergence failed at  80  side 2    Res =  0.2844E+01
 MRCHDU: Convergence failed at  81  side 2    Res =  0.1578E+02
 MRCHDU: Convergence failed at  82  side 2    Res =  0.1098E+02
 MRCHDU: Convergence failed at  83  side 2    Res =  0.5728E+01
 MRCHDU: Convergence failed at  84  side 2    Res =  0.4900E+01
 MRCHDU: Convergence failed at  85  side 2    Res =  0.5126E+01
 MRCHDU: Convergence failed at  86  side 2    Res =  0.5606E+01
 Side 1 forced transition at x/c =  1.0000   76
 Side 2  free  transition at x/c =  0.8030   72

   2   rms: 0.1649E+00   max: 0.1026E+01   T at   72  2   RLX: 0.929
       a = -4.000      CL = -0.4415
      Cm =  0.0036     CD =  0.01647   =>   CDf =  0.00747    CDp =  0.00900

 Side 1 forced transition at x/c =  1.0000   76
 Side 2  free  transition at x/c =  0.6665   63

   3   rms: 0.1375E+00   max: -.7044E+00   D at   70  2   RLX: 0.710
       a = -4.000      CL = -0.4773
      Cm =  0.0054     CD =  0.01720   =>   CDf =  0.00814    CDp =  0.00906

 Side 1 forced transition at x/c =  1.0000   76
 Side 2  free  transition at x/c =  0.6274   61

   4   rms: 0.6507E-01   max: -.4680E+00   D at   68  2
       a = -4.000      CL = -0.4904
      Cm =  0.0071     CD =  0.01679   =>   CDf =  0.00801    CDp =  0.00878

 Side 1 forced transition at x/c =  1.0000   76
 Side 2  free  transition at x/c =  0.6193   60

   5   rms: 0.1419E-01   max: -.1458E+00   D at   70  2
       a = -4.000      CL = -0.4900
      Cm =  0.0075     CD =  0.01725   =>   CDf =  0.00808    CDp =  0.00918

 Side 1 forced transition at x/c =  1.0000   76
 Side 2  free  transition at x/c =  0.6077   59

   6   rms: 0.4322E-02   max: -.3321E-01   D at   61  2
       a = -4.000      CL = -0.4905
      Cm =  0.0075     CD =  0.01727   =>   CDf =  0.00821    CDp =  0.00905

 Side 1 forced transition at x/c =  1.0000   76
 Side 2  free  transition at x/c =  0.6091   59

   7   rms: 0.1339E-03   max: 0.1093E-02   D at   61  2
       a = -4.000      CL = -0.4904
      Cm =  0.0075     CD =  0.01727   =>   CDf =  0.00819    CDp =  0.00909

 Side 1 forced transition at x/c =  1.0000   76
 Side 2  free  transition at x/c =  0.6090   59

   8   rms: 0.1516E-05   max: 0.7429E-05   D at   75  2
       a = -4.000      CL = -0.4904
      Cm =  0.0075     CD =  0.01727   =>   CDf =  0.00819    CDp =  0.00908
 plradd ia,ip,cpol            4          75  5.11825969E-03

 Point added to stored polar  1
 Save file unspecified or not available
 Dump file unspecified or not available

.OPERva   c>  
.OPERva   c>  
.OPERva   c>   Calculating wake trajectory ...
 Calculating source influence matrix ...

 Solving BL system ...

 Side 1 forced transition at x/c =  1.0000   76
 Side 2  free  transition at x/c =  0.6090   59

   1   rms: 0.2673E+00   max: 0.2146E+01   T at   59  2   RLX: 0.564
       a = -5.000      CL = -0.5250
      Cm =  0.0012     CD =  0.01826   =>   CDf =  0.00820    CDp =  0.01006

 Side 1 forced transition at x/c =  1.0000   76
 Side 2  free  transition at x/c =  0.4392   48
 idif Ue xi dudx           1  0.21090166      2.84183025E-03   74.213318    
 Uenew xinew           2  3.11411470E-02  4.19616699E-04

   2   rms: 0.3295E+00   max: 0.2018E+01   T at   48  2   RLX: 0.286
       a = -5.000      CL = -0.5377
      Cm = -0.0037     CD =  0.01919   =>   CDf =  0.00896    CDp =  0.01023

 Side 1 forced transition at x/c =  1.0000   75
 Side 2  free  transition at x/c =  0.3821   45

   3   rms: 0.3134E+00   max: 0.1857E+01   T at   45  2   RLX: 0.314
       a = -5.000      CL = -0.5421
      Cm = -0.0059     CD =  0.01904   =>   CDf =  0.00960    CDp =  0.00944

 Side 1 forced transition at x/c =  1.0000   75
 Side 2  free  transition at x/c =  0.3222   41

   4   rms: 0.2080E+00   max: 0.1546E+01   T at   41  2   RLX: 0.492
       a = -5.000      CL = -0.5477
      Cm = -0.0062     CD =  0.01982   =>   CDf =  0.00941    CDp =  0.01041

 Side 1 forced transition at x/c =  1.0000   75
 Side 2  free  transition at x/c =  0.2656   37

   5   rms: 0.1274E+00   max: 0.8562E+00   T at   37  2   RLX: 0.644
       a = -5.000      CL = -0.5548
      Cm = -0.0051     CD =  0.02128   =>   CDf =  0.00991    CDp =  0.01136

 Side 1 forced transition at x/c =  1.0000   75
 Side 2  free  transition at x/c =  0.2352   35

   6   rms: 0.7945E-01   max: -.5819E+00   D at   39  2   RLX: 0.859
       a = -5.000      CL = -0.5574
      Cm = -0.0040     CD =  0.02183   =>   CDf =  0.01029    CDp =  0.01154

 Side 1 forced transition at x/c =  1.0000   75
 Side 2  free  transition at x/c =  0.2341   35

   7   rms: 0.1358E-01   max: -.2039E+00   D at   40  2
       a = -5.000      CL = -0.5586
      Cm = -0.0036     CD =  0.02207   =>   CDf =  0.01035    CDp =  0.01173

 Side 1 forced transition at x/c =  1.0000   75
 Side 2  free  transition at x/c =  0.2302   35

   8   rms: 0.2173E-02   max: -.3552E-01   D at   40  2
       a = -5.000      CL = -0.5587
      Cm = -0.0035     CD =  0.02212   =>   CDf =  0.01044    CDp =  0.01169

 Side 1 forced transition at x/c =  1.0000   75
 Side 2  free  transition at x/c =  0.2301   35

   9   rms: 0.5430E-04   max: -.8677E-03   D at   40  2
       a = -5.000      CL = -0.5587
      Cm = -0.0035     CD =  0.02212   =>   CDf =  0.01044    CDp =  0.01169
 plradd ia,ip,cpol            5          74  3.38142971E-03

 Point added to stored polar  1
 Save file unspecified or not available
 Dump file unspecified or not available

.OPERva   c>  
.OPERva   c>  
.OPERva   c>   Calculating wake trajectory ...
 Calculating source influence matrix ...

 Solving BL system ...

 Side 1 forced transition at x/c =  1.0000   75
 Side 2  free  transition at x/c =  0.2301   35

   1   rms: 0.3361E+00   max: 0.3476E+01   T at   35  2   RLX: 0.396
       a = -6.000      CL = -0.5943
      Cm = -0.0058     CD =  0.02457   =>   CDf =  0.01045    CDp =  0.01412

 MRCHDU: Convergence failed at  35  side 2    Res =  0.1984E+02
 MRCHDU: Convergence failed at  36  side 2    Res =  0.2594E+02
 MRCHDU: Convergence failed at  37  side 2    Res =  0.1438E+04
 MRCHDU: Convergence failed at  38  side 2    Res =  0.4624E+02
 MRCHDU: Convergence failed at  39  side 2    Res =  0.2347E+02
 MRCHDU: Convergence failed at  40  side 2    Res =  0.1853E+02
 MRCHDU: Convergence failed at  41  side 2    Res =  0.5840E+01
 MRCHDU: Convergence failed at  42  side 2    Res =  0.3781E+01
 MRCHDU: Convergence failed at  43  side 2    Res =  0.4976E+01
 MRCHDU: Convergence failed at  44  side 2    Res =  0.5467E+01
 MRCHDU: Convergence failed at  45  side 2    Res =  0.6568E+01
 MRCHDU: Convergence failed at  46  side 2    Res =  0.7145E+01
 MRCHDU: Convergence failed at  47  side 2    Res =  0.7682E+01
 MRCHDU: Convergence failed at  48  side 2    Res =  0.8354E+01
 MRCHDU: Convergence failed at  49  side 2    Res =  0.9090E+01
 MRCHDU: Convergence failed at  50  side 2    Res =  0.9964E+01
 MRCHDU: Convergence failed at  51  side 2    Res =  0.1087E+02
 MRCHDU: Convergence failed at  52  side 2    Res =  0.1235E+02
 MRCHDU: Convergence failed at  53  side 2    Res =  0.1475E+02
 MRCHDU: Convergence failed at  54  side 2    Res =  0.1644E+02
 MRCHDU: Convergence failed at  55  side 2    Res =  0.1846E+02
 MRCHDU: Convergence failed at  56  side 2    Res =  0.2082E+02
 MRCHDU: Convergence failed at  57  side 2    Res =  0.2451E+02
 MRCHDU: Convergence failed at  58  side 2    Res =  0.2838E+02
 MRCHDU: Convergence failed at  59  side 2    Res =  0.3691E+02
 MRCHDU: Convergence failed at  60  side 2    Res =  0.5300E+02
 MRCHDU: Convergence failed at  61  side 2    Res =  0.7078E+02
 MRCHDU: Convergence failed at  62  side 2    Res =  0.1115E+03
 MRCHDU: Convergence failed at  63  side 2    Res =  0.2527E+03
 MRCHDU: Convergence failed at  64  side 2    Res =  0.8611E+03
 MRCHDU: Convergence failed at  65  side 2    Res =  0.1735E+03
 MRCHDU: Convergence failed at  66  side 2    Res =  0.9510E+02
 MRCHDU: Convergence failed at  67  side 2    Res =  0.6683E+02
 MRCHDU: Convergence failed at  68  side 2    Res =  0.4996E+02
 MRCHDU: Convergence failed at  69  side 2    Res =  0.4034E+02
 MRCHDU: Convergence failed at  70  side 2    Res =  0.3556E+02
 MRCHDU: Convergence failed at  71  side 2    Res =  0.3045E+02
 MRCHDU: Convergence failed at  72  side 2    Res =  0.2644E+02
 MRCHDU: Convergence failed at  73  side 2    Res =  0.2356E+02
 MRCHDU: Convergence failed at  74  side 2    Res =  0.2285E+02
 MRCHDU: Convergence failed at  75  side 2    Res =  0.2037E+02
 MRCHDU: Convergence failed at  76  side 2    Res =  0.1829E+02
 MRCHDU: Convergence failed at  77  side 2    Res =  0.1649E+02
 MRCHDU: Convergence failed at  78  side 2    Res =  0.1500E+02
 MRCHDU: Convergence failed at  79  side 2    Res =  0.1371E+02
 MRCHDU: Convergence failed at  80  side 2    Res =  0.1270E+02
 MRCHDU: Convergence failed at  81  side 2    Res =  0.1140E+02
 MRCHDU: Convergence failed at  82  side 2    Res =  0.1238E+02
 MRCHDU: Convergence failed at  83  side 2    Res =  0.1362E+02
 MRCHDU: Convergence failed at  84  side 2    Res =  0.1526E+02
 MRCHDU: Convergence failed at  85  side 2    Res =  0.1858E+02
 MRCHDU: Convergence failed at  86  side 2    Res =  0.1858E+02
 MRCHDU: Convergence failed at  87  side 2    Res =  0.1900E+02
 Side 1 forced transition at x/c =  1.0000   75
 Side 2  free  transition at x/c =  0.1802   32

   2   rms: 0.4672E+00   max: -.2599E+01   C at   75  1   RLX: 0.192
       a = -6.000      CL = -0.9080
      Cm =  0.1432     CD =  0.01780   =>   CDf =  0.00595    CDp =  0.01185

 Side 1 forced transition at x/c =  1.0000   75
 Side 2  free  transition at x/c =  0.1853   32
 idif Ue xi dudx           1  0.17399694      2.85285711E-03   60.990414    
 Uenew xinew           2  6.83075096E-03  1.11997128E-04

   3   rms: 0.3356E+00   max: 0.2272E+01   T at   32  2   RLX: 0.461
       a = -6.000      CL = -0.7271
      Cm =  0.0403     CD =  0.02873   =>   CDf =  0.00902    CDp =  0.01971

 Side 1 forced transition at x/c =  1.0000   74
 Side 2  free  transition at x/c =  0.1602   31

   4   rms: 0.3099E+00   max: 0.1927E+01   T at    2  2   RLX: 0.433
       a = -6.000      CL = -0.6926
      Cm =  0.0126     CD =  0.02807   =>   CDf =  0.00871    CDp =  0.01937

 Side 1 forced transition at x/c =  1.0000   74
 Side 2  free  transition at x/c =  0.1483   30

   5   rms: 0.4823E+00   max: 0.3334E+01   T at   30  2   RLX: 0.288
       a = -6.000      CL = -0.7514
      Cm =  0.0099     CD =  0.03137   =>   CDf =  0.00909    CDp =  0.02229

 Side 1 forced transition at x/c =  1.0000   74
 Side 2  free  transition at x/c =  0.1297   29

   6   rms: 0.2541E+00   max: -.9731E+00   D at   73  2   RLX: 0.514
       a = -6.000      CL = -0.7304
      Cm =  0.0015     CD =  0.03133   =>   CDf =  0.00863    CDp =  0.02270

 Side 1 forced transition at x/c =  1.0000   74
 Side 2  free  transition at x/c =  0.1266   29

   7   rms: 0.1994E+00   max: -.8402E+00   T at   29  2   RLX: 0.595
       a = -6.000      CL = -0.6574
      Cm = -0.0128     CD =  0.02974   =>   CDf =  0.00939    CDp =  0.02036

 Side 1 forced transition at x/c =  1.0000   74
 Side 2  free  transition at x/c =  0.1378   30

   8   rms: 0.1349E+00   max: -.5714E+00   D at   80  2   RLX: 0.875
       a = -6.000      CL = -0.6435
      Cm = -0.0120     CD =  0.02895   =>   CDf =  0.01022    CDp =  0.01873

 Side 1 forced transition at x/c =  1.0000   74
 Side 2  free  transition at x/c =  0.1396   30

   9   rms: 0.2888E-01   max: -.2289E+00   D at   80  2
       a = -6.000      CL = -0.6529
      Cm = -0.0079     CD =  0.02924   =>   CDf =  0.01061    CDp =  0.01864

 Side 1 forced transition at x/c =  1.0000   74
 Side 2  free  transition at x/c =  0.1378   30

  10   rms: 0.3701E-02   max: -.3155E-01   D at   80  2
       a = -6.000      CL = -0.6536
      Cm = -0.0076     CD =  0.02934   =>   CDf =  0.01074    CDp =  0.01860

 Side 1 forced transition at x/c =  1.0000   74
 Side 2  free  transition at x/c =  0.1377   30

  11   rms: 0.6288E-04   max: 0.4233E-03   T at   30  2
       a = -6.000      CL = -0.6536
      Cm = -0.0076     CD =  0.02935   =>   CDf =  0.01076    CDp =  0.01859
 plradd ia,ip,cpol            6          73  2.01607845E-03

 Point added to stored polar  1
 Save file unspecified or not available
 Dump file unspecified or not available

.OPERva   c>  
.OPERva   c>  
.OPERva   c>   Calculating wake trajectory ...
 Calculating source influence matrix ...

 Solving BL system ...

 Side 1 forced transition at x/c =  1.0000   74
 Side 2  free  transition at x/c =  0.1377   30

   1   rms: 0.2852E+00   max: 0.2789E+01   T at   30  2   RLX: 0.538
       a = -7.000      CL = -0.7065
      Cm = -0.0083     CD =  0.03546   =>   CDf =  0.01076    CDp =  0.02470

 MRCHDU: Convergence failed at  30  side 2    Res =  0.2902E+02
 MRCHDU: Convergence failed at  31  side 2    Res =  0.4747E+02
 MRCHDU: Convergence failed at  32  side 2    Res =  0.6017E+02
 MRCHDU: Convergence failed at  33  side 2    Res =  0.3408E+02
 MRCHDU: Convergence failed at  34  side 2    Res =  0.3608E+02
 MRCHDU: Convergence failed at  35  side 2    Res =  0.4882E+02
 MRCHDU: Convergence failed at  36  side 2    Res =  0.1046E+03
 MRCHDU: Convergence failed at  37  side 2    Res =  0.2546E+03
 MRCHDU: Convergence failed at  38  side 2    Res =  0.1860E+04
 MRCHDU: Convergence failed at  39  side 2    Res =  0.6991E+03
 MRCHDU: Convergence failed at  40  side 2    Res =  0.3519E+03
 MRCHDU: Convergence failed at  41  side 2    Res =  0.2674E+03
 MRCHDU: Convergence failed at  42  side 2    Res =  0.2053E+03
 MRCHDU: Convergence failed at  43  side 2    Res =  0.1616E+03
 MRCHDU: Convergence failed at  44  side 2    Res =  0.1335E+03
 MRCHDU: Convergence failed at  45  side 2    Res =  0.1142E+03
 MRCHDU: Convergence failed at  46  side 2    Res =  0.1004E+03
 MRCHDU: Convergence failed at  47  side 2    Res =  0.8949E+02
 MRCHDU: Convergence failed at  48  side 2    Res =  0.1364E+03
 MRCHDU: Convergence failed at  49  side 2    Res =  0.2784E+03
 MRCHDU: Convergence failed at  50  side 2    Res =  0.2344E+03
 MRCHDU: Convergence failed at  51  side 2    Res =  0.1947E+03
 MRCHDU: Convergence failed at  52  side 2    Res =  0.1638E+03
 MRCHDU: Convergence failed at  53  side 2    Res =  0.1406E+03
 MRCHDU: Convergence failed at  54  side 2    Res =  0.1222E+03
 MRCHDU: Convergence failed at  55  side 2    Res =  0.1079E+03
 MRCHDU: Convergence failed at  56  side 2    Res =  0.9632E+02
 MRCHDU: Convergence failed at  57  side 2    Res =  0.8699E+02
 MRCHDU: Convergence failed at  58  side 2    Res =  0.7910E+02
 MRCHDU: Convergence failed at  59  side 2    Res =  0.7252E+02
 MRCHDU: Convergence failed at  60  side 2    Res =  0.7239E+02
 MRCHDU: Convergence failed at  61  side 2    Res =  0.6110E+02
 MRCHDU: Convergence failed at  62  side 2    Res =  0.5220E+02
 MRCHDU: Convergence failed at  63  side 2    Res =  0.4544E+02
 MRCHDU: Convergence failed at  64  side 2    Res =  0.4006E+02
 MRCHDU: Convergence failed at  65  side 2    Res =  0.4159E+02
 MRCHDU: Convergence failed at  66  side 2    Res =  0.3938E+02
 MRCHDU: Convergence failed at  67  side 2    Res =  0.1303E+03
 MRCHDU: Convergence failed at  68  side 2    Res =  0.6476E+02
 MRCHDU: Convergence failed at  69  side 2    Res =  0.1355E+03
 MRCHDU: Convergence failed at  70  side 2    Res =  0.2996E+03
 MRCHDU: Convergence failed at  71  side 2    Res =  0.2421E+03
 MRCHDU: Convergence failed at  72  side 2    Res =  0.7782E+02
 MRCHDU: Convergence failed at  73  side 2    Res =  0.1119E+03
 MRCHDU: Convergence failed at  74  side 2    Res =  0.8969E+02
 MRCHDU: Convergence failed at  75  side 2    Res =  0.9026E+02
 MRCHDU: Convergence failed at  76  side 2    Res =  0.3390E+03
 MRCHDU: Convergence failed at  77  side 2    Res =  0.3475E+03
 MRCHDU: Convergence failed at  78  side 2    Res =  0.8908E+02
 MRCHDU: Convergence failed at  79  side 2    Res =  0.2934E+02
 MRCHDU: Convergence failed at  80  side 2    Res =  0.3958E+02
 MRCHDU: Convergence failed at  81  side 2    Res =  0.4002E+02
 MRCHDU: Convergence failed at  82  side 2    Res =  0.4346E+02
 MRCHDU: Convergence failed at  83  side 2    Res =  0.4782E+02
 MRCHDU: Convergence failed at  84  side 2    Res =  0.5346E+02
 MRCHDU: Convergence failed at  85  side 2    Res =  0.5142E+02
 MRCHDU: Convergence failed at  86  side 2    Res =  0.8945E+02
 MRCHDU: Convergence failed at  87  side 2    Res =  0.1098E+03
 MRCHDU: Convergence failed at  88  side 2    Res =  0.1406E+03
 Side 1 forced transition at x/c =  1.0000   74
 Side 2  free  transition at x/c =  0.1214   28

   2   rms: 0.8942E+00   max: 0.4876E+01   D at   90  2   RLX: 0.104
       a = -7.000      CL = -1.5915
      Cm =  0.3346     CD =  0.01368   =>   CDf =  0.00549    CDp =  0.00819

 MRCHDU: Convergence failed at  71  side 2    Res =  0.2067E+00
 MRCHDU: Convergence failed at  72  side 2    Res =  0.2021E+00
 MRCHDU: Convergence failed at  73  side 2    Res =  0.1982E+00
 MRCHDU: Convergence failed at  74  side 2    Res =  0.1951E+00
 MRCHDU: Convergence failed at  75  side 2    Res =  0.1930E+00
 MRCHDU: Convergence failed at  76  side 2    Res =  0.1920E+00
 MRCHDU: Convergence failed at  77  side 2    Res =  0.1921E+00
 MRCHDU: Convergence failed at  78  side 2    Res =  0.1933E+00
 MRCHDU: Convergence failed at  79  side 2    Res =  0.1959E+00
 MRCHDU: Convergence failed at  80  side 2    Res =  0.2000E+00
 MRCHDU: Convergence failed at  81  side 2    Res =  0.2055E+00
 MRCHDU: Convergence failed at  82  side 2    Res =  0.2128E+00
 MRCHDU: Convergence failed at  83  side 2    Res =  0.2214E+00
 MRCHDU: Convergence failed at  84  side 2    Res =  0.2304E+00
 MRCHDU: Convergence failed at  85  side 2    Res =  0.2372E+00
 MRCHDU: Convergence failed at  86  side 2    Res =  0.2343E+00
 MRCHDU: Convergence failed at  87  side 2    Res =  0.2201E+00
 MRCHDU: Convergence failed at  88  side 2    Res =  0.1431E+00
 Side 1 forced transition at x/c =  1.0000   74
 Side 2  free  transition at x/c =  0.1234   29

   3   rms: 0.5143E+00   max: -.2231E+01   T at   29  2   RLX: 0.224
       a = -7.000      CL = -0.9597
      Cm =  0.1201     CD =  0.05958   =>   CDf =  0.00599    CDp =  0.05359

 Side 1 forced transition at x/c =  1.0000   74
 Side 2  free  transition at x/c =  0.1338   29

   4   rms: 0.3018E+00   max: -.7300E+00   D at   44  2   RLX: 0.685
       a = -7.000      CL = -0.6684
      Cm =  0.0245     CD =  0.06115   =>   CDf =  0.00636    CDp =  0.05480

 Side 1 forced transition at x/c =  1.0000   74
 Side 2  free  transition at x/c =  0.1391   30

   5   rms: 0.5397E+00   max: -.3072E+01   T at   30  2   RLX: 0.163
       a = -7.000      CL = -0.5294
      Cm = -0.0104     CD =  0.08586   =>   CDf =  0.00688    CDp =  0.07898

 Side 1 forced transition at x/c =  1.0000   75
 Side 2  free  transition at x/c =  0.1481   29
 idif Ue xi dudx           1  0.17596774      3.04663181E-03   57.758125    
 Uenew xinew           2  1.76608078E-02  3.05771828E-04

   6   rms: 0.2749E+00   max: 0.1164E+01   T at   29  2   RLX: 0.685
       a = -7.000      CL = -0.5940
      Cm = -0.0126     CD =  0.05508   =>   CDf =  0.00651    CDp =  0.04857

 Side 1 forced transition at x/c =  1.0000   74
 Side 2  free  transition at x/c =  0.1349   29

   7   rms: 0.3020E+00   max: 0.1498E+01   T at   29  2   RLX: 0.553
       a = -7.000      CL = -0.6238
      Cm = -0.0252     CD =  0.05310   =>   CDf =  0.00654    CDp =  0.04656

 Side 1 forced transition at x/c =  1.0000   74
 Side 2  free  transition at x/c =  0.1276   29
 idif Ue xi dudx           1  0.17422394      3.53538990E-03   49.279980    
 Uenew xinew           2  1.87753215E-02  3.80992889E-04

   8   rms: 0.1188E+01   max: 0.4438E+01   T at   29  2   RLX: 0.171
       a = -7.000      CL = -0.7163
      Cm = -0.0329     CD =  0.05404   =>   CDf =  0.00634    CDp =  0.04770

 MRCHDU: Convergence failed at  82  side 2    Res =  0.3820E+01
 MRCHDU: Convergence failed at  83  side 2    Res =  0.3265E+01
 MRCHDU: Convergence failed at  84  side 2    Res =  0.2590E+01
 MRCHDU: Convergence failed at  85  side 2    Res =  0.2076E+01
 MRCHDU: Convergence failed at  86  side 2    Res =  0.1742E+01
 MRCHDU: Convergence failed at  87  side 2    Res =  0.1526E+01
 MRCHDU: Convergence failed at  88  side 2    Res =  0.1405E+01
 MRCHDU: Convergence failed at  89  side 2    Res =  0.1260E+01
 Side 1 forced transition at x/c =  1.0000   73
 Side 2  free  transition at x/c =  0.1121   29

   9   rms: 0.6180E+00   max: -.1806E+01   D at   58  2   RLX: 0.277
       a = -7.000      CL = -0.8012
      Cm = -0.0229     CD =  0.04182   =>   CDf =  0.00636    CDp =  0.03546

 Side 1 forced transition at x/c =  1.0000   73
 Side 2  free  transition at x/c =  0.1074   28

  10   rms: 0.2944E+00   max: -.1020E+01   D at   68  2   RLX: 0.490
       a = -7.000      CL = -0.7847
      Cm = -0.0253     CD =  0.03941   =>   CDf =  0.00702    CDp =  0.03239

 Side 1 forced transition at x/c =  1.0000   73
 Side 2  free  transition at x/c =  0.1071   28

  11   rms: 0.1588E+00   max: -.5913E+00   D at   77  2   RLX: 0.846
       a = -7.000      CL = -0.7547
      Cm = -0.0179     CD =  0.03838   =>   CDf =  0.00803    CDp =  0.03035

 Side 1 forced transition at x/c =  1.0000   73
 Side 2  free  transition at x/c =  0.1084   28

  12   rms: 0.4517E-01   max: -.2221E+00   D at   81  2
       a = -7.000      CL = -0.7417
      Cm = -0.0117     CD =  0.03980   =>   CDf =  0.00930    CDp =  0.03050

 Side 1 forced transition at x/c =  1.0000   73
 Side 2  free  transition at x/c =  0.1098   29

  13   rms: 0.4809E-01   max: 0.2292E+00   D at   29  2
       a = -7.000      CL = -0.7407
      Cm = -0.0118     CD =  0.03941   =>   CDf =  0.00991    CDp =  0.02950

 Side 1 forced transition at x/c =  1.0000   73
 Side 2  free  transition at x/c =  0.1102   29

  14   rms: 0.4880E-02   max: 0.3087E-01   D at   31  2
       a = -7.000      CL = -0.7398
      Cm = -0.0118     CD =  0.03943   =>   CDf =  0.00954    CDp =  0.02989

 Side 1 forced transition at x/c =  1.0000   73
 Side 2  free  transition at x/c =  0.1103   29

  15   rms: 0.1147E-02   max: 0.7385E-02   D at   31  2
       a = -7.000      CL = -0.7395
      Cm = -0.0119     CD =  0.03944   =>   CDf =  0.00949    CDp =  0.02996

 Side 1 forced transition at x/c =  1.0000   73
 Side 2  free  transition at x/c =  0.1104   29

  16   rms: 0.9691E-05   max: 0.6484E-04   D at   31  2
       a = -7.000      CL = -0.7395
      Cm = -0.0119     CD =  0.03944   =>   CDf =  0.00947    CDp =  0.02997
 plradd ia,ip,cpol            7          72  2.01607845E-03

 Point added to stored polar  1
 Save file unspecified or not available
 Dump file unspecified or not available

.OPERva   c>  
.OPERva   c>  
.OPERva   c>   Calculating wake trajectory ...
 Calculating source influence matrix ...

 Solving BL system ...

 Side 1 forced transition at x/c =  1.0000   73
 Side 2  free  transition at x/c =  0.1104   29

   1   rms: 0.2039E+00   max: 0.1322E+01   T at   29  2
       a = -8.000      CL = -0.8248
      Cm = -0.0147     CD =  0.05176   =>   CDf =  0.00948    CDp =  0.04227

 MRCHDU: Convergence failed at  29  side 2    Res =  0.1413E+02
 MRCHDU: Convergence failed at  30  side 2    Res =  0.5100E+02
 MRCHDU: Convergence failed at  31  side 2    Res =  0.4212E+02
 MRCHDU: Convergence failed at  32  side 2    Res =  0.1118E+03
 MRCHDU: Convergence failed at  33  side 2    Res =  0.1266E+03
 MRCHDU: Convergence failed at  34  side 2    Res =  0.6235E+02
 MRCHDU: Convergence failed at  35  side 2    Res =  0.7466E+02
 MRCHDU: Convergence failed at  36  side 2    Res =  0.3035E+03
 MRCHDU: Convergence failed at  37  side 2    Res =  0.8268E+02
 MRCHDU: Convergence failed at  38  side 2    Res =  0.4865E+02
 MRCHDU: Convergence failed at  39  side 2    Res =  0.9316E+02
 MRCHDU: Convergence failed at  40  side 2    Res =  0.6510E+03
 MRCHDU: Convergence failed at  41  side 2    Res =  0.7982E+02
 MRCHDU: Convergence failed at  42  side 2    Res =  0.2484E+03
 MRCHDU: Convergence failed at  43  side 2    Res =  0.7571E+02
 MRCHDU: Convergence failed at  44  side 2    Res =  0.4160E+03
 MRCHDU: Convergence failed at  45  side 2    Res =  0.1368E+03
 MRCHDU: Convergence failed at  46  side 2    Res =  0.5056E+02
 MRCHDU: Convergence failed at  47  side 2    Res =  0.6237E+02
 MRCHDU: Convergence failed at  48  side 2    Res =  0.6278E+02
 MRCHDU: Convergence failed at  49  side 2    Res =  0.7367E+02
 MRCHDU: Convergence failed at  50  side 2    Res =  0.6271E+02
 MRCHDU: Convergence failed at  51  side 2    Res =  0.6410E+02
 MRCHDU: Convergence failed at  52  side 2    Res =  0.5927E+02
 MRCHDU: Convergence failed at  53  side 2    Res =  0.6165E+02
 MRCHDU: Convergence failed at  54  side 2    Res =  0.6418E+02
 MRCHDU: Convergence failed at  55  side 2    Res =  0.6688E+02
 MRCHDU: Convergence failed at  56  side 2    Res =  0.6978E+02
 MRCHDU: Convergence failed at  57  side 2    Res =  0.7288E+02
 MRCHDU: Convergence failed at  58  side 2    Res =  0.7621E+02
 MRCHDU: Convergence failed at  59  side 2    Res =  0.7982E+02
 MRCHDU: Convergence failed at  60  side 2    Res =  0.8371E+02
 MRCHDU: Convergence failed at  61  side 2    Res =  0.8797E+02
 MRCHDU: Convergence failed at  62  side 2    Res =  0.9262E+02
 MRCHDU: Convergence failed at  63  side 2    Res =  0.9776E+02
 MRCHDU: Convergence failed at  64  side 2    Res =  0.1034E+03
 MRCHDU: Convergence failed at  65  side 2    Res =  0.8382E+02
 MRCHDU: Convergence failed at  66  side 2    Res =  0.8796E+02
 MRCHDU: Convergence failed at  67  side 2    Res =  0.9241E+02
 MRCHDU: Convergence failed at  68  side 2    Res =  0.7986E+02
 MRCHDU: Convergence failed at  69  side 2    Res =  0.8358E+02
 MRCHDU: Convergence failed at  70  side 2    Res =  0.8767E+02
 MRCHDU: Convergence failed at  71  side 2    Res =  0.9209E+02
 MRCHDU: Convergence failed at  72  side 2    Res =  0.9695E+02
 MRCHDU: Convergence failed at  73  side 2    Res =  0.1023E+03
 MRCHDU: Convergence failed at  74  side 2    Res =  0.1082E+03
 MRCHDU: Convergence failed at  75  side 2    Res =  0.1034E+03
 MRCHDU: Convergence failed at  76  side 2    Res =  0.1313E+03
 MRCHDU: Convergence failed at  77  side 2    Res =  0.3732E+03
 MRCHDU: Convergence failed at  78  side 2    Res =  0.4699E+03
 MRCHDU: Convergence failed at  79  side 2    Res =  0.5496E+03
 MRCHDU: Convergence failed at  80  side 2    Res =  0.7745E+03
 MRCHDU: Convergence failed at  81  side 2    Res =  0.1319E+04
 MRCHDU: Convergence failed at  82  side 2    Res =  0.1978E+04
 MRCHDU: Convergence failed at  83  side 2    Res =  0.8976E+03
 MRCHDU: Convergence failed at  84  side 2    Res =  0.5773E+03
 MRCHDU: Convergence failed at  85  side 2    Res =  0.1893E+03
 MRCHDU: Convergence failed at  86  side 2    Res =  0.2068E+03
 MRCHDU: Convergence failed at  87  side 2    Res =  0.2290E+03
 MRCHDU: Convergence failed at  88  side 2    Res =  0.1838E+03
 MRCHDU: Convergence failed at  89  side 2    Res =  0.2380E+03
 Side 1 forced transition at x/c =  1.0000   73
 Side 2  free  transition at x/c =  0.1031   28

   2   rms: 0.1408E+01   max: 0.9764E+01   D at   91  2   RLX: 0.070
       a = -8.000      CL = -2.3218
      Cm =  0.5282     CD =  0.01077   =>   CDf =  0.00504    CDp =  0.00573

 Side 1 forced transition at x/c =  1.0000   73
 Side 2  free  transition at x/c =  0.1061   28

   3   rms: 0.6558E+00   max: -.3608E+01   C at   73  1   RLX: 0.139
       a = -8.000      CL = -1.6845
      Cm =  0.3053     CD =  0.07279   =>   CDf =  0.00569    CDp =  0.06709

 Side 1 forced transition at x/c =  1.0000   73
 Side 2  free  transition at x/c =  0.1080   28

   4   rms: 0.5420E+00   max: -.1572E+01   C at   73  1   RLX: 0.318
       a = -8.000      CL = -1.3382
      Cm =  0.2036     CD =  0.07839   =>   CDf =  0.00601    CDp =  0.07238

 Side 1 forced transition at x/c =  1.0000   73
 Side 2  free  transition at x/c =  0.1107   29

   5   rms: 0.5983E+00   max: 0.3111E+01   T at   29  2   RLX: 0.448
       a = -8.000      CL = -1.0220
      Cm =  0.0706     CD =  0.05805   =>   CDf =  0.00644    CDp =  0.05161

 MRCHDU: Convergence failed at  29  side 2    Res =  0.1166E+03
 MRCHDU: Convergence failed at  30  side 2    Res =  0.4825E+02
 MRCHDU: Convergence failed at  31  side 2    Res =  0.2120E+03
 MRCHDU: Convergence failed at  32  side 2    Res =  0.5369E+02
 MRCHDU: Convergence failed at  33  side 2    Res =  0.2663E+02
 MRCHDU: Convergence failed at  34  side 2    Res =  0.2188E+02
 MRCHDU: Convergence failed at  35  side 2    Res =  0.2880E+02
 MRCHDU: Convergence failed at  36  side 2    Res =  0.4150E+02
 MRCHDU: Convergence failed at  37  side 2    Res =  0.7049E+02
 MRCHDU: Convergence failed at  38  side 2    Res =  0.2060E+03
 MRCHDU: Convergence failed at  39  side 2    Res =  0.3035E+03
 MRCHDU: Convergence failed at  40  side 2    Res =  0.8269E+02
 MRCHDU: Convergence failed at  41  side 2    Res =  0.4686E+02
 MRCHDU: Convergence failed at  42  side 2    Res =  0.6263E+02
 MRCHDU: Convergence failed at  43  side 2    Res =  0.2594E+02
 MRCHDU: Convergence failed at  44  side 2    Res =  0.1121E+03
 MRCHDU: Convergence failed at  45  side 2    Res =  0.4661E+02
 MRCHDU: Convergence failed at  46  side 2    Res =  0.4466E+02
 MRCHDU: Convergence failed at  47  side 2    Res =  0.6253E+02
 MRCHDU: Convergence failed at  48  side 2    Res =  0.4653E+02
 MRCHDU: Convergence failed at  49  side 2    Res =  0.4953E+02
 MRCHDU: Convergence failed at  50  side 2    Res =  0.5381E+02
 MRCHDU: Convergence failed at  51  side 2    Res =  0.4776E+02
 MRCHDU: Convergence failed at  52  side 2    Res =  0.1860E+03
 MRCHDU: Convergence failed at  53  side 2    Res =  0.5376E+02
 MRCHDU: Convergence failed at  54  side 2    Res =  0.6647E+02
 MRCHDU: Convergence failed at  55  side 2    Res =  0.1139E+04
 MRCHDU: Convergence failed at  56  side 2    Res =  0.1610E+03
 MRCHDU: Convergence failed at  57  side 2    Res =  0.5271E+02
 MRCHDU: Convergence failed at  58  side 2    Res =  0.5709E+02
 MRCHDU: Convergence failed at  59  side 2    Res =  0.3844E+02
 MRCHDU: Convergence failed at  60  side 2    Res =  0.2664E+02
 MRCHDU: Convergence failed at  61  side 2    Res =  0.5405E+02
 MRCHDU: Convergence failed at  62  side 2    Res =  0.3728E+02
 MRCHDU: Convergence failed at  63  side 2    Res =  0.5481E+02
 MRCHDU: Convergence failed at  64  side 2    Res =  0.5684E+02
 MRCHDU: Convergence failed at  65  side 2    Res =  0.3091E+02
 MRCHDU: Convergence failed at  66  side 2    Res =  0.5658E+02
 MRCHDU: Convergence failed at  67  side 2    Res =  0.5323E+02
 MRCHDU: Convergence failed at  68  side 2    Res =  0.9478E+02
 MRCHDU: Convergence failed at  69  side 2    Res =  0.6569E+02
 MRCHDU: Convergence failed at  70  side 2    Res =  0.5398E+02
 MRCHDU: Convergence failed at  71  side 2    Res =  0.1079E+03
 MRCHDU: Convergence failed at  72  side 2    Res =  0.4434E+03
 MRCHDU: Convergence failed at  73  side 2    Res =  0.3811E+03
 MRCHDU: Convergence failed at  74  side 2    Res =  0.7463E+02
 MRCHDU: Convergence failed at  75  side 2    Res =  0.3755E+03
 MRCHDU: Convergence failed at  76  side 2    Res =  0.5357E+02
 MRCHDU: Convergence failed at  77  side 2    Res =  0.6098E+02
 MRCHDU: Convergence failed at  78  side 2    Res =  0.3967E+03
 MRCHDU: Convergence failed at  79  side 2    Res =  0.6280E+02
 MRCHDU: Convergence failed at  80  side 2    Res =  0.2837E+02
 MRCHDU: Convergence failed at  81  side 2    Res =  0.2768E+02
 MRCHDU: Convergence failed at  82  side 2    Res =  0.3096E+02
 MRCHDU: Convergence failed at  83  side 2    Res =  0.5698E+02
 MRCHDU: Convergence failed at  84  side 2    Res =  0.5371E+02
 MRCHDU: Convergence failed at  85  side 2    Res =  0.5087E+02
 MRCHDU: Convergence failed at  86  side 2    Res =  0.5223E+02
 MRCHDU: Convergence failed at  87  side 2    Res =  0.3625E+02
 MRCHDU: Convergence failed at  88  side 2    Res =  0.6810E+02
 MRCHDU: Convergence failed at  89  side 2    Res =  0.3060E+02
 Side 1 forced transition at x/c =  1.0000   73
 Side 2  free  transition at x/c =  0.1015   28

   6   rms: 0.1032E+01   max: 0.4607E+01   D at   96  2   RLX: 0.263
       a = -8.000      CL = -1.8871
      Cm =  0.3967     CD =  0.02204   =>   CDf =  0.00594    CDp =  0.01610

 MRCHDU: Convergence failed at  96  side 2    Res =  0.3549E+02
 MRCHDU: Convergence failed at  97  side 2    Res =  0.4273E+01
 MRCHDU: Convergence failed at  98  side 2    Res =  0.2735E+01
 MRCHDU: Convergence failed at  99  side 2    Res =  0.5228E+01
 MRCHDU: Convergence failed at 100  side 2    Res =  0.1510E+02
 MRCHDU: Convergence failed at 101  side 2    Res =  0.5665E+01
 MRCHDU: Convergence failed at 102  side 2    Res =  0.4158E+01
 MRCHDU: Convergence failed at 103  side 2    Res =  0.2692E+01
 MRCHDU: Convergence failed at 104  side 2    Res =  0.2403E+01
 MRCHDU: Convergence failed at 105  side 2    Res =  0.2202E+01
 MRCHDU: Convergence failed at 106  side 2    Res =  0.2615E+01
 MRCHDU: Convergence failed at 107  side 2    Res =  0.3211E+01
 Side 1 forced transition at x/c =  1.0000   73
 Side 2  free  transition at x/c =  0.1085   28

   7   rms: 0.5044E+00   max: -.9586E+00   T at  111  2   RLX: 0.364
       a = -8.000      CL = -1.0498
      Cm =  0.1264     CD =  0.07847   =>   CDf =  0.00706    CDp =  0.07141

 Side 1 forced transition at x/c =  1.0000   74
 Side 2  free  transition at x/c =  0.1161   28

   8   rms: 0.3709E+00   max: -.1404E+01   T at   28  2   RLX: 0.356
       a = -8.000      CL = -0.8206
      Cm =  0.0645     CD =  0.09508   =>   CDf =  0.00690    CDp =  0.08818

 Side 1 forced transition at x/c =  1.0000   74
 Side 2  free  transition at x/c =  0.1256   29

   9   rms: 0.3022E+00   max: -.7356E+00   D at   49  2   RLX: 0.680
       a = -8.000      CL = -0.6833
      Cm =  0.0024     CD =  0.06157   =>   CDf =  0.00695    CDp =  0.05461

 Side 1 forced transition at x/c =  1.0000   74
 Side 2  free  transition at x/c =  0.1200   28
 idif Ue xi dudx           1  0.15308128      3.16202641E-03   48.412399    
 Uenew xinew           2  3.69357294E-04  7.62939453E-06

  10   rms: 0.2260E+00   max: 0.8221E+00   T at   28  2   RLX: 0.747
       a = -8.000      CL = -0.6857
      Cm = -0.0211     CD =  0.05812   =>   CDf =  0.00638    CDp =  0.05174

 Side 1 forced transition at x/c =  1.0000   73
 Side 2  free  transition at x/c =  0.1163   29

  11   rms: 0.2985E+01   max: -.5359E+02   T at    2  2   RLX: 0.009
       a = -8.000      CL = -0.6732
      Cm = -0.0273     CD =  0.05826   =>   CDf =  0.00768    CDp =  0.05058

 Side 1 forced transition at x/c =  1.0000   74
 Side 2  free  transition at x/c =  0.1163   28
 idif Ue xi dudx           1  0.16640215      3.27807665E-03   50.762127    
 Uenew xinew           2  6.27824152E-03  1.23679638E-04

  12   rms: 0.5051E+00   max: 0.8767E+01   T at    2  1   RLX: 0.142
       a = -8.000      CL = -0.6891
      Cm = -0.0252     CD =  0.05861   =>   CDf =  0.00716    CDp =  0.05145

 Side 1 forced transition at x/c =  1.0000   73
 Side 2  free  transition at x/c =  0.1165   29

  13   rms: 0.1828E+00   max: 0.2731E+01   T at    2  2   RLX: 0.426
       a = -8.000      CL = -0.7277
      Cm = -0.0201     CD =  0.05942   =>   CDf =  0.00734    CDp =  0.05208

 Side 1 forced transition at x/c =  1.0000   73
 Side 2  free  transition at x/c =  0.1174   29

  14   rms: 0.4700E-01   max: 0.2414E+00   C at   73  1
       a = -8.000      CL = -0.7713
      Cm = -0.0154     CD =  0.05865   =>   CDf =  0.00714    CDp =  0.05151

 Side 1 forced transition at x/c =  1.0000   73
 Side 2  free  transition at x/c =  0.1159   29

  15   rms: 0.1350E-01   max: -.6414E-01   D at   89  2
       a = -8.000      CL = -0.7701
      Cm = -0.0154     CD =  0.05862   =>   CDf =  0.00698    CDp =  0.05164

 Side 1 forced transition at x/c =  1.0000   73
 Side 2  free  transition at x/c =  0.1153   29

  16   rms: 0.1426E-02   max: 0.6706E-02   T at   29  2
       a = -8.000      CL = -0.7700
      Cm = -0.0155     CD =  0.05857   =>   CDf =  0.00708    CDp =  0.05150

 Side 1 forced transition at x/c =  1.0000   73
 Side 2  free  transition at x/c =  0.1152   29

  17   rms: 0.5754E-04   max: 0.3136E-03   T at   29  2
       a = -8.000      CL = -0.7701
      Cm = -0.0155     CD =  0.05858   =>   CDf =  0.00709    CDp =  0.05149
 plradd ia,ip,cpol            8          72  1.00687880E-03

 Point added to stored polar  1
 Save file unspecified or not available
 Dump file unspecified or not available

.OPERva   c>  
.OPERva   c>  
.OPERva   c>   Calculating wake trajectory ...
 Calculating source influence matrix ...

 Solving BL system ...

 Side 1 forced transition at x/c =  1.0000   73
 Side 2  free  transition at x/c =  0.1152   29

   1   rms: 0.2936E+00   max: -.9878E+00   T at   29  2   RLX: 0.506
       a = -9.000      CL = -0.7631
      Cm = -0.0150     CD =  0.07230   =>   CDf =  0.00710    CDp =  0.06520

 Side 1 forced transition at x/c =  1.0000   73
 Side 2  free  transition at x/c =  0.1291   30

   2   rms: 0.1283E+01   max: -.9573E+01   T at   30  2   RLX: 0.052
       a = -9.000      CL = -0.7434
      Cm = -0.0135     CD =  0.06858   =>   CDf =  0.00681    CDp =  0.06177

 Side 1 forced transition at x/c =  1.0000   73
 Side 2  free  transition at x/c =  0.1416   31

   3   rms: 0.2562E+00   max: 0.2534E+01   T at   31  2   RLX: 0.592
       a = -9.000      CL = -0.8057
      Cm = -0.0218     CD =  0.06622   =>   CDf =  0.00655    CDp =  0.05967

 MRCHDU: Convergence failed at  41  side 2    Res =  0.1759E+02
 MRCHDU: Convergence failed at  42  side 2    Res =  0.5390E+01
 MRCHDU: Convergence failed at  43  side 2    Res =  0.3474E+01
 MRCHDU: Convergence failed at  44  side 2    Res =  0.2595E+01
 MRCHDU: Convergence failed at  45  side 2    Res =  0.2176E+01
 MRCHDU: Convergence failed at  46  side 2    Res =  0.1756E+01
 MRCHDU: Convergence failed at  47  side 2    Res =  0.1707E+01
 MRCHDU: Convergence failed at  48  side 2    Res =  0.1689E+01
 MRCHDU: Convergence failed at  49  side 2    Res =  0.1693E+01
 MRCHDU: Convergence failed at  50  side 2    Res =  0.1715E+01
 MRCHDU: Convergence failed at  51  side 2    Res =  0.1745E+01
 MRCHDU: Convergence failed at  52  side 2    Res =  0.1787E+01
 MRCHDU: Convergence failed at  53  side 2    Res =  0.1836E+01
 MRCHDU: Convergence failed at  54  side 2    Res =  0.1892E+01
 MRCHDU: Convergence failed at  55  side 2    Res =  0.1953E+01
 MRCHDU: Convergence failed at  56  side 2    Res =  0.2023E+01
 MRCHDU: Convergence failed at  57  side 2    Res =  0.2095E+01
 MRCHDU: Convergence failed at  58  side 2    Res =  0.2173E+01
 MRCHDU: Convergence failed at  59  side 2    Res =  0.2256E+01
 MRCHDU: Convergence failed at  60  side 2    Res =  0.2343E+01
 MRCHDU: Convergence failed at  61  side 2    Res =  0.2435E+01
 MRCHDU: Convergence failed at  62  side 2    Res =  0.2539E+01
 MRCHDU: Convergence failed at  63  side 2    Res =  0.2643E+01
 MRCHDU: Convergence failed at  64  side 2    Res =  0.2752E+01
 MRCHDU: Convergence failed at  65  side 2    Res =  0.2867E+01
 MRCHDU: Convergence failed at  66  side 2    Res =  0.2986E+01
 MRCHDU: Convergence failed at  67  side 2    Res =  0.3113E+01
 MRCHDU: Convergence failed at  68  side 2    Res =  0.3269E+01
 MRCHDU: Convergence failed at  69  side 2    Res =  0.3415E+01
 MRCHDU: Convergence failed at  70  side 2    Res =  0.3569E+01
 MRCHDU: Convergence failed at  71  side 2    Res =  0.3848E+01
 MRCHDU: Convergence failed at  72  side 2    Res =  0.4040E+01
 MRCHDU: Convergence failed at  73  side 2    Res =  0.4238E+01
 MRCHDU: Convergence failed at  74  side 2    Res =  0.4455E+01
 MRCHDU: Convergence failed at  75  side 2    Res =  0.4685E+01
 MRCHDU: Convergence failed at  76  side 2    Res =  0.4939E+01
 MRCHDU: Convergence failed at  77  side 2    Res =  0.5218E+01
 MRCHDU: Convergence failed at  78  side 2    Res =  0.5693E+01
 MRCHDU: Convergence failed at  79  side 2    Res =  0.6380E+01
 MRCHDU: Convergence failed at  80  side 2    Res =  0.6814E+01
 MRCHDU: Convergence failed at  81  side 2    Res =  0.7321E+01
 MRCHDU: Convergence failed at  82  side 2    Res =  0.7885E+01
 MRCHDU: Convergence failed at  83  side 2    Res =  0.8535E+01
 MRCHDU: Convergence failed at  84  side 2    Res =  0.9282E+01
 MRCHDU: Convergence failed at  85  side 2    Res =  0.1016E+02
 MRCHDU: Convergence failed at  86  side 2    Res =  0.1211E+02
 MRCHDU: Convergence failed at  87  side 2    Res =  0.1559E+02
 MRCHDU: Convergence failed at  88  side 2    Res =  0.1823E+02
 MRCHDU: Convergence failed at  89  side 2    Res =  0.2203E+02
 Side 1 forced transition at x/c =  1.0000   73
 Side 2  free  transition at x/c =  0.1291   30

   4   rms: 0.5683E+00   max: -.5182E+01   T at   30  2   RLX: 0.096
       a = -9.000      CL = -1.1793
      Cm =  0.1454     CD =  0.03740   =>   CDf =  0.00624    CDp =  0.03116

 Side 1 forced transition at x/c =  1.0000   73
 Side 2  free  transition at x/c =  0.1353   30
 idif Ue xi dudx           1  0.15267144      3.96823883E-03   38.473351    
 Uenew xinew           2  1.03927385E-02  2.70128250E-04

   5   rms: 0.6555E+00   max: -.1755E+01   T at   30  2   RLX: 0.285
       a = -9.000      CL = -1.1401
      Cm =  0.1007     CD =  0.03995   =>   CDf =  0.01042    CDp =  0.02953

 Side 1 forced transition at x/c =  1.0000   72
 Side 2  free  transition at x/c =  0.1332   31

   6   rms: 0.5449E+00   max: 0.1551E+01   D at   90  2   RLX: 0.900
       a = -9.000      CL = -0.9921
      Cm =  0.0104     CD =  0.07086   =>   CDf =  0.00874    CDp =  0.06212

 MRCHDU: Convergence failed at  48  side 2    Res =  0.1034E+03
 MRCHDU: Convergence failed at  49  side 2    Res =  0.5319E+02
 MRCHDU: Convergence failed at  50  side 2    Res =  0.4159E+02
 MRCHDU: Convergence failed at  51  side 2    Res =  0.3715E+02
 MRCHDU: Convergence failed at  52  side 2    Res =  0.5816E+02
 MRCHDU: Convergence failed at  53  side 2    Res =  0.1275E+03
 MRCHDU: Convergence failed at  54  side 2    Res =  0.1702E+03
 MRCHDU: Convergence failed at  55  side 2    Res =  0.6763E+03
 MRCHDU: Convergence failed at  56  side 2    Res =  0.9896E+03
 MRCHDU: Convergence failed at  57  side 2    Res =  0.2939E+03
 MRCHDU: Convergence failed at  58  side 2    Res =  0.1847E+03
 MRCHDU: Convergence failed at  59  side 2    Res =  0.1467E+03
 MRCHDU: Convergence failed at  60  side 2    Res =  0.2046E+03
 MRCHDU: Convergence failed at  61  side 2    Res =  0.2417E+03
 MRCHDU: Convergence failed at  62  side 2    Res =  0.2029E+03
 MRCHDU: Convergence failed at  63  side 2    Res =  0.1352E+03
 MRCHDU: Convergence failed at  64  side 2    Res =  0.1231E+03
 MRCHDU: Convergence failed at  65  side 2    Res =  0.9944E+02
 MRCHDU: Convergence failed at  66  side 2    Res =  0.9575E+02
 MRCHDU: Convergence failed at  67  side 2    Res =  0.1805E+03
 MRCHDU: Convergence failed at  68  side 2    Res =  0.1412E+03
 MRCHDU: Convergence failed at  69  side 2    Res =  0.6033E+03
 MRCHDU: Convergence failed at  70  side 2    Res =  0.3375E+03
 MRCHDU: Convergence failed at  71  side 2    Res =  0.2979E+03
 MRCHDU: Convergence failed at  72  side 2    Res =  0.2890E+03
 MRCHDU: Convergence failed at  73  side 2    Res =  0.2978E+03
 MRCHDU: Convergence failed at  74  side 2    Res =  0.3036E+03
 MRCHDU: Convergence failed at  75  side 2    Res =  0.3058E+03
 MRCHDU: Convergence failed at  76  side 2    Res =  0.3038E+03
 MRCHDU: Convergence failed at  77  side 2    Res =  0.2972E+03
 MRCHDU: Convergence failed at  78  side 2    Res =  0.2884E+03
 MRCHDU: Convergence failed at  79  side 2    Res =  0.2796E+03
 MRCHDU: Convergence failed at  80  side 2    Res =  0.2685E+03
 MRCHDU: Convergence failed at  81  side 2    Res =  0.2564E+03
 MRCHDU: Convergence failed at  82  side 2    Res =  0.2433E+03
 MRCHDU: Convergence failed at  83  side 2    Res =  0.2289E+03
 MRCHDU: Convergence failed at  84  side 2    Res =  0.2143E+03
 MRCHDU: Convergence failed at  85  side 2    Res =  0.2009E+03
 MRCHDU: Convergence failed at  86  side 2    Res =  0.1875E+03
 MRCHDU: Convergence failed at  87  side 2    Res =  0.1745E+03
 MRCHDU: Convergence failed at  88  side 2    Res =  0.8970E+02
 MRCHDU: Convergence failed at  89  side 2    Res =  0.8587E+02
 MRCHDU: Convergence failed at  90  side 2    Res =  0.1251E+03
 Side 1 forced transition at x/c =  1.0000   72
 Side 2  free  transition at x/c =  0.4315   52

   7   rms: 0.7932E+01   max: 0.7764E+02   T at   52  2   RLX: 0.019
       a = -9.000      CL = -2.1096
      Cm =  0.4720     CD =  0.00826   =>   CDf =  0.00445    CDp =  0.00381

 Side 1 forced transition at x/c =  1.0000   72
 Side 2  free  transition at x/c =  0.3960   49

   8   rms: 0.3254E+01   max: -.5470E+02   T at   49  2   RLX: 0.009
       a = -9.000      CL = -1.8023
      Cm =  0.3137     CD =  0.04994   =>   CDf =  0.00485    CDp =  0.04509

 Side 1 forced transition at x/c =  1.0000   72
 Side 2  free  transition at x/c =  0.4070   50

   9   rms: 0.4399E+01   max: -.6894E+02   T at   50  2   RLX: 0.007
       a = -9.000      CL = -1.7802
      Cm =  0.3099     CD =  0.05068   =>   CDf =  0.00486    CDp =  0.04582

 Side 1 forced transition at x/c =  1.0000   72
 Side 2  free  transition at x/c =  0.4180   51

  10   rms: 0.8099E+01   max: -.1044E+03   T at   51  2   RLX: 0.005
       a = -9.000      CL = -1.7562
      Cm =  0.3105     CD =  0.05246   =>   CDf =  0.00519    CDp =  0.04728

 Side 1 forced transition at x/c =  1.0000   73
 Side 2  free  transition at x/c =  0.4305   50
 idif Ue xi dudx           1  0.15179710      4.15563583E-03   36.528008    
 Uenew xinew           2  1.67124867E-02  4.57525253E-04

  11   rms: 0.4837E+01   max: 0.4435E+02   T at    2  1   RLX: 0.020
       a = -9.000      CL = -1.7565
      Cm =  0.2944     CD =  0.05834   =>   CDf =  0.00473    CDp =  0.05361

 Side 1 forced transition at x/c =  1.0000   72
 Side 2  free  transition at x/c =  0.4283   51

  12   rms: 0.9077E+00   max: -.5652E+01   T at   51  2   RLX: 0.088
       a = -9.000      CL = -1.7271
      Cm =  0.2822     CD =  0.05898   =>   CDf =  0.00486    CDp =  0.05411

 Side 1 forced transition at x/c =  1.0000   72
 Side 2  free  transition at x/c =  0.4217   51

  13   rms: 0.6796E+00   max: 0.5632E+01   T at   51  2   RLX: 0.258
       a = -9.000      CL = -1.5675
      Cm =  0.2352     CD =  0.06756   =>   CDf =  0.00520    CDp =  0.06236

 Side 1 forced transition at x/c =  1.0000   73
 Side 2  free  transition at x/c =  0.3012   42

  14   rms: 0.7090E+00   max: -.8297E+01   D at    2  1   RLX: 0.060
       a = -9.000      CL = -1.5723
      Cm =  0.2629     CD =  0.07878   =>   CDf =  0.00537    CDp =  0.07341

 Side 1 forced transition at x/c =  1.0000   73
 Side 2  free  transition at x/c =  0.3019   42

  15   rms: 0.4953E+00   max: 0.1136E+01   D at   91  2   RLX: 0.519
       a = -9.000      CL = -1.0527
      Cm =  0.1447     CD =  0.09333   =>   CDf =  0.00574    CDp =  0.08758

 Side 1 forced transition at x/c =  1.0000   74
 Side 2  free  transition at x/c =  0.2814   39

  16   rms: 0.3076E+00   max: 0.1062E+01   T at   40  2   RLX: 0.704
       a = -9.000      CL = -0.6858
      Cm =  0.0551     CD =  0.10177   =>   CDf =  0.00659    CDp =  0.09518

 Side 1 forced transition at x/c =  1.0000   75
 Side 2  free  transition at x/c =  0.2747   38

  17   rms: 0.9708E-01   max: -.5466E+00   D at   38  2   RLX: 0.915
       a = -9.000      CL = -0.6117
      Cm =  0.0247     CD =  0.10340   =>   CDf =  0.00674    CDp =  0.09666

 Side 1 forced transition at x/c =  1.0000   75
 Side 2  free  transition at x/c =  0.2733   38
 idif Ue xi dudx           1  0.16997804      3.06570530E-03   55.445004    
 Uenew xinew           2  1.80110503E-02  3.24845314E-04

  18   rms: 0.4903E-01   max: 0.4449E+00   T at   38  2
       a = -9.000      CL = -0.6415
      Cm =  0.0226     CD =  0.10310   =>   CDf =  0.00646    CDp =  0.09664

 Side 1 forced transition at x/c =  1.0000   74
 Side 2  free  transition at x/c =  0.2733   39

  19   rms: 0.1998E-01   max: 0.2594E+00   D at   39  2
       a = -9.000      CL = -0.6488
      Cm =  0.0233     CD =  0.10576   =>   CDf =  0.00648    CDp =  0.09928

 Side 1 forced transition at x/c =  1.0000   74
 Side 2  free  transition at x/c =  0.2703   39

  20   rms: 0.1073E-01   max: -.7518E-01   T at   39  2
       a = -9.000      CL = -0.6411
      Cm =  0.0228     CD =  0.10442   =>   CDf =  0.00645    CDp =  0.09798

 Side 1 forced transition at x/c =  1.0000   74
 Side 2  free  transition at x/c =  0.2713   39

  21   rms: 0.3876E-02   max: -.1272E-01   D at   39  2
       a = -9.000      CL = -0.6438
      Cm =  0.0228     CD =  0.10455   =>   CDf =  0.00647    CDp =  0.09808

 Side 1 forced transition at x/c =  1.0000   74
 Side 2  free  transition at x/c =  0.2713   39

  22   rms: 0.5464E-03   max: 0.2658E-02   T at   39  2
       a = -9.000      CL = -0.6443
      Cm =  0.0229     CD =  0.10473   =>   CDf =  0.00646    CDp =  0.09827

 Side 1 forced transition at x/c =  1.0000   74
 Side 2  free  transition at x/c =  0.2713   39

  23   rms: 0.5891E-04   max: 0.2022E-03   D at   94  2
       a = -9.000      CL = -0.6442
      Cm =  0.0229     CD =  0.10473   =>   CDf =  0.00646    CDp =  0.09827
 plradd ia,ip,cpol            9          73  2.01607845E-03

 Point added to stored polar  1
 Save file unspecified or not available
 Dump file unspecified or not available

.OPERva   c>  
.OPERva   c>  
.OPERva   c>   Calculating wake trajectory ...
 Calculating source influence matrix ...

 Solving BL system ...

 Side 1 forced transition at x/c =  1.0000   74
 Side 2  free  transition at x/c =  0.2713   39

   1   rms: 0.1631E+00   max: 0.1772E+01   T at   39  2   RLX: 0.846
       a =-10.000      CL = -0.7126
      Cm =  0.0202     CD =  0.12126   =>   CDf =  0.00646    CDp =  0.11479

 Side 1 forced transition at x/c =  1.0000   74
 Side 2  free  transition at x/c =  0.2297   36

   2   rms: 0.1844E+00   max: -.8092E+00   T at   36  2   RLX: 0.618
       a =-10.000      CL = -0.6675
      Cm =  0.0374     CD =  0.12067   =>   CDf =  0.00634    CDp =  0.11433

 Side 1 forced transition at x/c =  1.0000   74
 Side 2  free  transition at x/c =  0.2315   36

   3   rms: 0.4140E-01   max: -.4994E+00   D at   38  2
       a =-10.000      CL = -0.6261
      Cm =  0.0254     CD =  0.11997   =>   CDf =  0.00663    CDp =  0.11333

 Side 1 forced transition at x/c =  1.0000   74
 Side 2  free  transition at x/c =  0.2380   37

   4   rms: 0.7566E-01   max: -.1765E+00   D at  106  2
       a =-10.000      CL = -0.6745
      Cm =  0.0218     CD =  0.11836   =>   CDf =  0.00665    CDp =  0.11170

 Side 1 forced transition at x/c =  1.0000   74
 Side 2  free  transition at x/c =  0.2359   36

   5   rms: 0.4436E-01   max: 0.1688E+00   D at   37  2
       a =-10.000      CL = -0.6639
      Cm =  0.0253     CD =  0.12505   =>   CDf =  0.00651    CDp =  0.11855

 Side 1 forced transition at x/c =  1.0000   74
 Side 2  free  transition at x/c =  0.2358   36

   6   rms: 0.1259E-01   max: -.1226E+00   T at   36  2
       a =-10.000      CL = -0.6626
      Cm =  0.0238     CD =  0.12131   =>   CDf =  0.00653    CDp =  0.11478

 Side 1 forced transition at x/c =  1.0000   74
 Side 2  free  transition at x/c =  0.2369   36

   7   rms: 0.3660E-02   max: -.2827E-01   D at   36  2
       a =-10.000      CL = -0.6642
      Cm =  0.0235     CD =  0.12100   =>   CDf =  0.00654    CDp =  0.11446

 Side 1 forced transition at x/c =  1.0000   74
 Side 2  free  transition at x/c =  0.2372   36

   8   rms: 0.8776E-03   max: 0.5740E-02   T at   36  2
       a =-10.000      CL = -0.6643
      Cm =  0.0236     CD =  0.12117   =>   CDf =  0.00653    CDp =  0.11464

 Side 1 forced transition at x/c =  1.0000   74
 Side 2  free  transition at x/c =  0.2371   36

   9   rms: 0.3639E-04   max: -.2369E-03   T at   36  2
       a =-10.000      CL = -0.6643
      Cm =  0.0236     CD =  0.12118   =>   CDf =  0.00653    CDp =  0.11465
 plradd ia,ip,cpol           10          73  1.00687880E-03

 Point added to stored polar  1
 Save file unspecified or not available
 Dump file unspecified or not available

.OPERva   c>  
.OPERva   c>  
.OPERva   c>  
        airfoil                    Re           Mach       Ncrit  XtripT  XtripB     file
       ------------------------  ------------  ----------  -----  ------  ------    -------------------
 >  1  NACA 0009                 6.000e4       0.000        9.00   1.000   1.000    

Enter polar output filename   s>  
.OPERva   c>  
 ==============================================================
 Polar  1
  
       XFOIL         Version 6.99
  
 Calculated polar for: NACA 0009                                       
  
 1 1 Reynolds number fixed          Mach number fixed         
  
 xtrf =   1.000 (top)        1.000 (bottom)  
 Mach =   0.000     Re =     0.060 e 6     Ncrit =   9.000
  
   alpha    CL        CD       CDp       CM     Top_Xtr  Bot_Xtr
  ------ -------- --------- --------- -------- -------- --------
  -1.000  -0.0449   0.01549   0.00600  -0.0092   1.0000   1.0000
  -2.000  -0.1006   0.01713   0.00782  -0.0137   1.0000   1.0000
  -3.000  -0.3940   0.01771   0.00975   0.0208   1.0000   0.8684
  -4.000  -0.4904   0.01727   0.00908   0.0075   1.0000   0.6090
  -5.000  -0.5587   0.02212   0.01169  -0.0035   1.0000   0.2301
  -6.000  -0.6536   0.02935   0.01859  -0.0076   1.0000   0.1377
  -7.000  -0.7395   0.03944   0.02997  -0.0119   1.0000   0.1104
  -8.000  -0.7701   0.05858   0.05149  -0.0155   1.0000   0.1152
  -9.000  -0.6442   0.10473   0.09827   0.0229   1.0000   0.2713
 -10.000  -0.6643   0.12118   0.11465   0.0236   1.0000   0.2371

.OPERva   c>  
 XFOIL   c>  