
 ===================================================
  XFOIL Version 6.99
  Copyright (C) 2000   Mark Drela, Harold Youngren

  This software comes with ABSOLUTELY NO WARRANTY,
    subject to the GNU General Public License.

  Caveat computor
 ===================================================

 File  xfoil.def  not found

   QUIT    Exit program

  .OPER    Direct operating point(s)
  .MDES    Complex mapping design routine
  .QDES    Surface speed design routine
  .GDES    Geometry design routine

   SAVE f  Write airfoil to labeled coordinate file
   PSAV f  Write airfoil to plain coordinate file
   ISAV f  Write airfoil to ISES coordinate file
   MSAV f  Write airfoil to MSES coordinate file
   REVE    Reverse written-airfoil node ordering

   LOAD f  Read buffer airfoil from coordinate file
   NACA i  Set NACA 4,5-digit airfoil and buffer airfoil
   INTE    Set buffer airfoil by interpolating two airfoils
   NORM    Buffer airfoil normalization toggle
   XYCM rr Change CM reference location, currently  0.25000 0.00000

   BEND    Display structural properties of current airfoil

   PCOP    Set current-airfoil panel nodes directly from buffer airfoil points
   PANE    Set current-airfoil panel nodes ( 160 ) based on curvature
  .PPAR    Show/change paneling

  .PLOP    Plotting options

   WDEF f  Write  current-settings file
   RDEF f  Reread current-settings file
   NAME s  Specify new airfoil name
   NINC    Increment name version number

   Z       Zoom    | (available in all menus)
   U       Unzoom  | 

 XFOIL   c>   Max thickness =     0.350101  at x =   0.300
 Max camber    =     0.000000  at x =   0.947

 Buffer airfoil set using 331 points

 Blunt trailing edge.  Gap =  0.00735

 Paneling parameters used...
   Number of panel nodes       160
   Panel bunching parameter    1.000
   TE/LE panel density ratio   0.150
   Refined-area/LE panel density ratio    0.200
   Top    side refined area x/c limits  1.000 1.000
   Bottom side refined area x/c limits  1.000 1.000

 XFOIL   c>  
 Blunt trailing edge.  Gap =  0.00735

 Paneling parameters used...
   Number of panel nodes       160
   Panel bunching parameter    1.000
   TE/LE panel density ratio   0.150
   Refined-area/LE panel density ratio    0.200
   Top    side refined area x/c limits  1.000 1.000
   Bottom side refined area x/c limits  1.000 1.000

 XFOIL   c>   N    command not recognized.  Type a "?" for list

 XFOIL   c>   2000 command not recognized.  Type a "?" for list

 XFOIL   c>  
 XFOIL   c>  
 XFOIL   c>  
.OPERi   c>   Current iteration limit:          10

Enter new iteration limit   i>  
.OPERi   c>  
 XFOIL   c>  
 XFOIL   c>  
 XFOIL   c>  
.OPERi   c>  
.OPERi   c>  
.OPERi   c>  
 M  =    0.0000
 Re =     60000

.OPERv   c>  
 Polar  1 newly created for accumulation
 Airfoil archived with polar: NACA 0035                                       

Enter  polar save filename  OR  <return> for no file   s>  
 Polar save file will NOT be written

Enter  polar dump filename  OR  <return> for no file   s>  
 Polar dump file will NOT be written

 Polar accumulation enabled

.OPERva   c>   Calculating unit vorticity distributions ...
 Calculating wake trajectory ...
 Calculating source influence matrix ...

 Solving BL system ...

 Initializing BL ...
    side            1  ...
 MRCHUE: Inverse mode at  54     Hk =   3.800
 MRCHUE: Inverse mode at  55     Hk =   4.202
 MRCHUE: Inverse mode at  56     Hk =   4.603
 MRCHUE: Inverse mode at  57     Hk =   5.005
 MRCHUE: Inverse mode at  58     Hk =   5.409
 MRCHUE: Inverse mode at  59     Hk =   5.814
 MRCHUE: Inverse mode at  60     Hk =   6.223
 MRCHUE: Inverse mode at  61     Hk =   6.635
 MRCHUE: Inverse mode at  62     Hk =   7.049
 MRCHUE: Inverse mode at  63     Hk =   7.466
 MRCHUE: Inverse mode at  64     Hk =   7.886
 MRCHUE: Inverse mode at  65     Hk =   8.306
 MRCHUE: Inverse mode at  66     Hk =   8.727
 MRCHUE: Inverse mode at  67     Hk =   9.148
 MRCHUE: Inverse mode at  68     Hk =   9.567
 MRCHUE: Inverse mode at  69     Hk =   9.403
 MRCHUE: Inverse mode at  70     Hk =   7.550
 MRCHUE: Inverse mode at  71     Hk =   6.352
 MRCHUE: Inverse mode at  72     Hk =   5.457
 MRCHUE: Inverse mode at  73     Hk =   4.746
 MRCHUE: Inverse mode at  74     Hk =   4.165
 MRCHUE: Inverse mode at  75     Hk =   3.684
 MRCHUE: Convergence failed at  76  side 1    Res =  0.3183E+02
 MRCHUE: Inverse mode at  77     Hk =   3.323
 MRCHUE: Convergence failed at  78  side 1    Res =  0.9828E+01
 MRCHUE: Convergence failed at  79  side 1    Res =  0.3809E+02
    side            2  ...
 MRCHUE: Inverse mode at  56     Hk =   3.844
 MRCHUE: Inverse mode at  57     Hk =   4.236
 MRCHUE: Inverse mode at  58     Hk =   4.628
 MRCHUE: Inverse mode at  59     Hk =   5.022
 MRCHUE: Inverse mode at  60     Hk =   5.419
 MRCHUE: Inverse mode at  61     Hk =   5.820
 MRCHUE: Inverse mode at  62     Hk =   6.225
 MRCHUE: Inverse mode at  63     Hk =   6.634
 MRCHUE: Inverse mode at  64     Hk =   7.048
 MRCHUE: Inverse mode at  65     Hk =   7.467
 MRCHUE: Inverse mode at  66     Hk =   7.890
 MRCHUE: Inverse mode at  67     Hk =   8.317
 MRCHUE: Inverse mode at  68     Hk =   8.747
 MRCHUE: Inverse mode at  69     Hk =   9.180
 MRCHUE: Inverse mode at  70     Hk =   9.614
 MRCHUE: Inverse mode at  71     Hk =   9.091
 MRCHUE: Inverse mode at  72     Hk =   7.261
 MRCHUE: Inverse mode at  73     Hk =   6.045
 MRCHUE: Inverse mode at  74     Hk =   5.125
 MRCHUE: Inverse mode at  75     Hk =   4.384
 MRCHUE: Inverse mode at  76     Hk =   3.770
 MRCHUE: Inverse mode at  77     Hk =   3.254
 MRCHUE: Inverse mode at  78     Hk =   2.807
 MRCHUE: Inverse mode at  79     Hk =   2.500
 MRCHUE: Convergence failed at  80  side 2    Res =  0.9551E+01
 MRCHUE: Inverse mode at  81     Hk =   2.500
 MRCHUE: Convergence failed at  82  side 2    Res =  0.6521E+01
 MRCHUE: Convergence failed at  83  side 2    Res =  0.4109E+01

 MRCHDU: Convergence failed at  76  side 1    Res =  0.9663E+01
 MRCHDU: Convergence failed at  77  side 1    Res =  0.7008E+01
 MRCHDU: Convergence failed at  78  side 1    Res =  0.1071E+02
 MRCHDU: Convergence failed at  79  side 1    Res =  0.1966E+03
 MRCHDU: Convergence failed at  80  side 2    Res =  0.2278E+01
 MRCHDU: Convergence failed at  81  side 2    Res =  0.2137E+01
 MRCHDU: Convergence failed at  82  side 2    Res =  0.1757E+02
 MRCHDU: Convergence failed at  83  side 2    Res =  0.1114E+02
 Side 1  free  transition at x/c =  0.7480   69
 Side 2  free  transition at x/c =  0.6861   71

   1   rms: 0.1266E+01   max: 0.8591E+01   D at   85  2   RLX: 0.175
       a = -1.000      CL = -0.1849
      Cm =  0.0165     CD =  0.00771   =>   CDf =  0.01051    CDp = -0.00280

 Side 1  free  transition at x/c =  0.7195   68
 Side 2  free  transition at x/c =  0.6620   70
 idif Ue xi dudx           1  7.57369921E-02  5.53798676E-03   13.675907    
 Uenew xinew           2  1.29918223E-02  9.49978828E-04

   2   rms: 0.1211E+01   max: 0.6073E+01   D at   88  2   RLX: 0.164
       a = -1.000      CL = -0.3560
      Cm =  0.0505     CD =  0.01580   =>   CDf =  0.01040    CDp =  0.00539

 Side 1  free  transition at x/c =  0.6898   66
 Side 2  free  transition at x/c =  0.6253   70
 idif Ue xi dudx           1  8.23877454E-02  6.20114803E-03   13.285886    
 Uenew xinew           2  2.12086793E-02  1.59633160E-03

   3   rms: 0.5883E+00   max: 0.2815E+01   D at   92  2   RLX: 0.375
       a = -1.000      CL = -0.5217
      Cm =  0.0681     CD =  0.03573   =>   CDf =  0.00988    CDp =  0.02585

 Side 1  free  transition at x/c =  0.6647   64
 Side 2  free  transition at x/c =  0.5984   70
 idif Ue xi dudx           1  6.65084273E-02  5.08487225E-03   13.079665    
 Uenew xinew           2  6.02949457E-03  4.60982323E-04

   4   rms: 0.4152E+00   max: 0.2512E+01   T at   64  1   RLX: 0.359
       a = -1.000      CL = -0.6295
      Cm =  0.0824     CD =  0.06380   =>   CDf =  0.00930    CDp =  0.05449

 Side 1  free  transition at x/c =  0.6544   63
 Side 2  free  transition at x/c =  0.5732   70

   5   rms: 0.5683E+00   max: 0.1935E+01   T at   63  1   RLX: 0.568
       a = -1.000      CL = -0.1251
      Cm =  0.0246     CD =  0.11198   =>   CDf =  0.00921    CDp =  0.10277

 Side 1  free  transition at x/c =  0.6149   66
 Side 2  free  transition at x/c =  0.5652   66

   6   rms: 0.1784E+00   max: 0.9273E+00   T at   66  1   RLX: 0.921
       a = -1.000      CL =  0.1528
      Cm = -0.0188     CD =  0.12570   =>   CDf =  0.00823    CDp =  0.11747

 Side 1  free  transition at x/c =  0.6012   66
 Side 2  free  transition at x/c =  0.5734   65

   7   rms: 0.5291E+00   max: -.1673E+01   T at   65  2   RLX: 0.299
       a = -1.000      CL =  0.3750
      Cm = -0.0409     CD =  0.09760   =>   CDf =  0.00805    CDp =  0.08955

 Side 1  free  transition at x/c =  0.6334   69
 Side 2  free  transition at x/c =  0.5931   64

   8   rms: 0.4554E+00   max: 0.1829E+01   D at   83  1   RLX: 0.338
       a = -1.000      CL =  0.5148
      Cm = -0.0591     CD =  0.10742   =>   CDf =  0.00892    CDp =  0.09849

 Side 1  free  transition at x/c =  0.6091   69
 Side 2  free  transition at x/c =  0.6714   66
 idif Ue xi dudx           2  0.13626239      1.04449987E-02   13.045707    
 Uenew xinew           3  7.61877522E-02  5.84006310E-03

   9   rms: 0.1842E+00   max: 0.9864E+00   T at   66  2
       a = -1.000      CL =  0.2712
      Cm = -0.0312     CD =  0.12795   =>   CDf =  0.00849    CDp =  0.11945

 Side 1  free  transition at x/c =  0.6011   67
 Side 2  free  transition at x/c =  0.6022   65

  10   rms: 0.4385E+00   max: 0.7999E+01   T at   65  2   RLX: 0.144
       a = -1.000      CL =  0.2230
      Cm = -0.0174     CD =  0.11287   =>   CDf =  0.00809    CDp =  0.10478

 Side 1  free  transition at x/c =  0.5961   67
 Side 2  free  transition at x/c =  0.5931   65
 idif Ue xi dudx           1  7.37055540E-02  5.63859940E-03   13.071607    
 Uenew xinew           2  1.39386086E-02  1.06632710E-03

  11   rms: 0.1297E+00   max: 0.1274E+01   T at   65  2   RLX: 0.721
       a = -1.000      CL =  0.1289
      Cm = -0.0148     CD =  0.12442   =>   CDf =  0.00804    CDp =  0.11638

 Side 1  free  transition at x/c =  0.5957   66
 Side 2  free  transition at x/c =  0.5732   65

  12   rms: 0.2834E-01   max: -.3518E+00   D at   68  2
       a = -1.000      CL =  0.1585
      Cm = -0.0205     CD =  0.12559   =>   CDf =  0.00799    CDp =  0.11760

 Side 1  free  transition at x/c =  0.5946   66
 Side 2  free  transition at x/c =  0.5731   65

  13   rms: 0.7370E-02   max: -.4184E-01   T at   65  2
       a = -1.000      CL =  0.1676
      Cm = -0.0212     CD =  0.12615   =>   CDf =  0.00799    CDp =  0.11817

 Side 1  free  transition at x/c =  0.5942   66
 Side 2  free  transition at x/c =  0.5745   65

  14   rms: 0.5558E-03   max: 0.3258E-02   T at   65  2
       a = -1.000      CL =  0.1671
      Cm = -0.0212     CD =  0.12613   =>   CDf =  0.00798    CDp =  0.11815

 Side 1  free  transition at x/c =  0.5943   66
 Side 2  free  transition at x/c =  0.5744   65

  15   rms: 0.2514E-04   max: 0.1689E-03   D at   93  2
       a = -1.000      CL =  0.1671
      Cm = -0.0212     CD =  0.12613   =>   CDf =  0.00798    CDp =  0.11815
 plradd ia,ip,cpol            1          80  0.16930644    

 Point added to stored polar  1
 Save file unspecified or not available
 Dump file unspecified or not available

.OPERva   c>  
.OPERva   c>  
.OPERva   c>   Calculating wake trajectory ...
 Calculating source influence matrix ...

 Solving BL system ...

 Side 1  free  transition at x/c =  0.5943   66
 Side 2  free  transition at x/c =  0.5744   65

   1   rms: 0.7410E-01   max: -.5784E+00   T at   66  1   RLX: 0.864
       a = -2.000      CL =  0.2321
      Cm = -0.0316     CD =  0.12808   =>   CDf =  0.00797    CDp =  0.12011

 Side 1  free  transition at x/c =  0.6155   67
 Side 2  free  transition at x/c =  0.6187   67
 idif Ue xi dudx           1  6.76307157E-02  5.12027740E-03   13.208408    
 Uenew xinew           2  7.39888102E-03  5.60164452E-04

   2   rms: 0.1146E+00   max: 0.1039E+01   T at   67  2
       a = -2.000      CL =  0.1005
      Cm = -0.0189     CD =  0.12917   =>   CDf =  0.00799    CDp =  0.12118

 Side 1  free  transition at x/c =  0.6232   66
 Side 2  free  transition at x/c =  0.5668   66

   3   rms: 0.2553E+00   max: 0.5482E+01   T at   66  2   RLX: 0.274
       a = -2.000      CL =  0.0584
      Cm = -0.0095     CD =  0.11611   =>   CDf =  0.00800    CDp =  0.10811

 Side 1  free  transition at x/c =  0.6255   66
 Side 2  free  transition at x/c =  0.5540   65

   4   rms: 0.5958E-01   max: -.4797E+00   D at   67  2
       a = -2.000      CL =  0.1453
      Cm = -0.0282     CD =  0.12220   =>   CDf =  0.00810    CDp =  0.11410

 Side 1  free  transition at x/c =  0.6268   67
 Side 2  free  transition at x/c =  0.5572   65

   5   rms: 0.1980E-01   max: 0.1300E+00   T at   65  2
       a = -2.000      CL =  0.1342
      Cm = -0.0285     CD =  0.11906   =>   CDf =  0.00815    CDp =  0.11091

 Side 1  free  transition at x/c =  0.6296   67
 Side 2  free  transition at x/c =  0.5564   64

   6   rms: 0.2612E-01   max: -.1208E+00   T at   64  2
       a = -2.000      CL =  0.1550
      Cm = -0.0317     CD =  0.11462   =>   CDf =  0.00823    CDp =  0.10638

 Side 1  free  transition at x/c =  0.6348   67
 Side 2  free  transition at x/c =  0.5564   64

   7   rms: 0.3039E-01   max: -.1543E+00   T at   64  2
       a = -2.000      CL =  0.1628
      Cm = -0.0319     CD =  0.11683   =>   CDf =  0.00834    CDp =  0.10849

 Side 1  free  transition at x/c =  0.6320   67
 Side 2  free  transition at x/c =  0.5570   65
 idif Ue xi dudx           1  6.22725748E-02  4.68957424E-03   13.278940    
 Uenew xinew           2  1.71910867E-03  1.29461288E-04

   8   rms: 0.2924E-01   max: 0.1530E+00   T at   65  2
       a = -2.000      CL =  0.1287
      Cm = -0.0283     CD =  0.11862   =>   CDf =  0.00833    CDp =  0.11029

 Side 1  free  transition at x/c =  0.6306   66
 Side 2  free  transition at x/c =  0.5558   65

   9   rms: 0.4235E-01   max: 0.2203E+00   D at   66  2
       a = -2.000      CL =  0.1348
      Cm = -0.0268     CD =  0.12451   =>   CDf =  0.00822    CDp =  0.11629

 Side 1  free  transition at x/c =  0.6241   67
 Side 2  free  transition at x/c =  0.5574   65

  10   rms: 0.1873E-01   max: 0.1029E+00   T at   65  2
       a = -2.000      CL =  0.1331
      Cm = -0.0278     CD =  0.12025   =>   CDf =  0.00810    CDp =  0.11216

 Side 1  free  transition at x/c =  0.6279   67
 Side 2  free  transition at x/c =  0.5568   64

  11   rms: 0.1378E-01   max: -.6075E-01   T at   67  1
       a = -2.000      CL =  0.1431
      Cm = -0.0294     CD =  0.11804   =>   CDf =  0.00820    CDp =  0.10985

 Side 1  free  transition at x/c =  0.6306   67
 Side 2  free  transition at x/c =  0.5560   64

  12   rms: 0.3072E-01   max: 0.1274E+00   D at   66  2
       a = -2.000      CL =  0.1412
      Cm = -0.0281     CD =  0.12225   =>   CDf =  0.00825    CDp =  0.11400

 Side 1  free  transition at x/c =  0.6262   67
 Side 2  free  transition at x/c =  0.5567   64

  13   rms: 0.1355E-01   max: -.6661E-01   T at   67  1
       a = -2.000      CL =  0.1420
      Cm = -0.0290     CD =  0.11911   =>   CDf =  0.00816    CDp =  0.11095

 Side 1  free  transition at x/c =  0.6292   67
 Side 2  free  transition at x/c =  0.5561   64

  14   rms: 0.2206E-01   max: -.1390E+00   T at   64  2
       a = -2.000      CL =  0.1578
      Cm = -0.0315     CD =  0.11618   =>   CDf =  0.00822    CDp =  0.10796

 Side 1  free  transition at x/c =  0.6328   67
 Side 2  free  transition at x/c =  0.5566   64

  15   rms: 0.2290E-01   max: -.1206E+00   T at   64  2
       a = -2.000      CL =  0.1524
      Cm = -0.0305     CD =  0.11821   =>   CDf =  0.00830    CDp =  0.10991

 Side 1  free  transition at x/c =  0.6306   67
 Side 2  free  transition at x/c =  0.5565   64

  16   rms: 0.2912E-01   max: 0.1073E+00   T at   67  1
       a = -2.000      CL =  0.1369
      Cm = -0.0277     CD =  0.12200   =>   CDf =  0.00825    CDp =  0.11374

 Side 1  free  transition at x/c =  0.6263   67
 Side 2  free  transition at x/c =  0.5564   64

  17   rms: 0.1470E-01   max: -.7751E-01   T at   64  2
       a = -2.000      CL =  0.1428
      Cm = -0.0290     CD =  0.11912   =>   CDf =  0.00816    CDp =  0.11096

 Side 1  free  transition at x/c =  0.6292   67
 Side 2  free  transition at x/c =  0.5562   64

  18   rms: 0.2160E-01   max: -.1347E+00   T at   64  2
       a = -2.000      CL =  0.1575
      Cm = -0.0315     CD =  0.11614   =>   CDf =  0.00822    CDp =  0.10792

 Side 1  free  transition at x/c =  0.6328   67
 Side 2  free  transition at x/c =  0.5566   64

  19   rms: 0.2295E-01   max: -.1187E+00   T at   64  2
       a = -2.000      CL =  0.1520
      Cm = -0.0302     CD =  0.11828   =>   CDf =  0.00830    CDp =  0.10999

 Side 1  free  transition at x/c =  0.6307   67
 Side 2  free  transition at x/c =  0.5565   64

  20   rms: 0.2621E-01   max: 0.9653E-01   D at   66  2
       a = -2.000      CL =  0.1394
      Cm = -0.0282     CD =  0.12145   =>   CDf =  0.00825    CDp =  0.11320

 Side 1  free  transition at x/c =  0.6271   67
 Side 2  free  transition at x/c =  0.5564   64

  21   rms: 0.1487E-01   max: -.9245E-01   T at   64  2
       a = -2.000      CL =  0.1455
      Cm = -0.0295     CD =  0.11859   =>   CDf =  0.00818    CDp =  0.11041

 Side 1  free  transition at x/c =  0.6298   67
 Side 2  free  transition at x/c =  0.5562   64

  22   rms: 0.7132E-01   max: -.3681E+00   T at   67  1
       a = -2.000      CL =  0.1992
      Cm = -0.0390     CD =  0.10466   =>   CDf =  0.00823    CDp =  0.09643

 Side 1  free  transition at x/c =  0.6495   68
 Side 2  free  transition at x/c =  0.5611   65
 idif Ue xi dudx           3  0.19569574      1.48804188E-02   13.151225    
 Uenew xinew           4  0.13572466      1.03203058E-02

  23   rms: 0.2673E+00   max: 0.9341E+00   T at   65  2
       a = -2.000      CL = -0.1875
      Cm =  0.0005     CD =  0.11357   =>   CDf =  0.00885    CDp =  0.10472

 Side 1  free  transition at x/c =  0.6440   65
 Side 2  free  transition at x/c =  0.5492   67
 idif Ue xi dudx           2  0.17044465      1.29194260E-02   13.192897    
 Uenew xinew           3  0.10969379      8.31460953E-03

  24   rms: 0.1280E+01   max: -.2737E+01   D at   74  2   RLX: 0.183
       a = -2.000      CL = -0.5751
      Cm =  0.0414     CD =  0.08963   =>   CDf =  0.00857    CDp =  0.08105

 Side 1  free  transition at x/c =  0.6552   63
 Side 2  free  transition at x/c =  0.5516   69
 idif Ue xi dudx           1  6.45311698E-02  4.87399101E-03   13.239903    
 Uenew xinew           2  3.02406005E-03  2.28404999E-04

  25   rms: 0.1865E+00   max: 0.1288E+01   D at   86  2
       a = -2.000      CL = -0.6233
      Cm =  0.0559     CD =  0.09737   =>   CDf =  0.00915    CDp =  0.08822

 Side 1  free  transition at x/c =  0.6598   62
 Side 2  free  transition at x/c =  0.5435   70

  26   rms: 0.1748E+01   max: 0.6926E+01   D at   80  2   RLX: 0.135
       a = -2.000      CL = -0.3170
      Cm =  0.0210     CD =  0.10677   =>   CDf =  0.00887    CDp =  0.09790

 Side 1  free  transition at x/c =  0.6369   63
 Side 2  free  transition at x/c =  0.5364   68

  27   rms: 0.1845E+00   max: 0.1198E+01   T at   63  1   RLX: 0.717
       a = -2.000      CL = -0.2547
      Cm =  0.0110     CD =  0.13312   =>   CDf =  0.00826    CDp =  0.12486

 Side 1  free  transition at x/c =  0.6275   64
 Side 2  free  transition at x/c =  0.5300   66
 idif Ue xi dudx           2  0.12538475      9.59861279E-03   13.062799    
 Uenew xinew           3  6.52329549E-02  4.99379635E-03

  28   rms: 0.1885E+00   max: -.5194E+00   D at  102  2   RLX: 0.963
       a = -2.000      CL = -0.4501
      Cm =  0.0233     CD =  0.10749   =>   CDf =  0.00783    CDp =  0.09966

 Side 1  free  transition at x/c =  0.6497   63
 Side 2  free  transition at x/c =  0.5594   70
 idif Ue xi dudx           2  0.12891692      9.91809368E-03   12.998155    
 Uenew xinew           3  6.85328692E-02  5.27250767E-03

  29   rms: 0.2169E+00   max: 0.9670E+00   D at   86  2   RLX: 0.951
       a = -2.000      CL = -0.7888
      Cm =  0.0735     CD =  0.08835   =>   CDf =  0.00916    CDp =  0.07918

 MRCHDU: Convergence failed at  87  side 2    Res =  0.2659E+01
 MRCHDU: Convergence failed at  88  side 2    Res =  0.2193E+01
 Side 1  free  transition at x/c =  0.6714   62
 Side 2  free  transition at x/c =  0.5468   71

  30   rms: 0.1108E+01   max: 0.6807E+01   T at   62  1   RLX: 0.220
       a = -2.000      CL = -0.4439
      Cm =  0.0430     CD =  0.08042   =>   CDf =  0.00918    CDp =  0.07124

 Side 1  free  transition at x/c =  0.6814   65
 Side 2  free  transition at x/c =  0.5635   69
 idif Ue xi dudx           3  0.18882342      1.42140388E-02   13.284290    
 Uenew xinew           4  0.12739833      9.59014893E-03

  31   rms: 0.9452E+00   max: 0.5257E+01   D at   65  1   RLX: 0.285
       a = -2.000      CL = -0.8094
      Cm =  0.0874     CD =  0.06812   =>   CDf =  0.00922    CDp =  0.05890

 Side 1  free  transition at x/c =  0.6827   62
 Side 2  free  transition at x/c =  0.5602   72

  32   rms: 0.4520E+00   max: 0.1376E+01   D at   81  2   RLX: 0.380
       a = -2.000      CL = -0.5533
      Cm =  0.0526     CD =  0.07224   =>   CDf =  0.00965    CDp =  0.06259

 Side 1  free  transition at x/c =  0.6700   64
 Side 2  free  transition at x/c =  0.5604   70
 idif Ue xi dudx           2  0.17883241      1.35840178E-02   13.164913    
 Uenew xinew           3  0.11767368      8.93843174E-03

  33   rms: 0.5490E+00   max: 0.1699E+01   D at   68  1   RLX: 0.438
       a = -2.000      CL = -0.9229
      Cm =  0.0917     CD =  0.08089   =>   CDf =  0.00899    CDp =  0.07190

 Side 1  free  transition at x/c =  0.6849   62
 Side 2  free  transition at x/c =  0.5559   71

  34   rms: 0.4628E+00   max: 0.1416E+01   T at   62  1   RLX: 0.659
       a = -2.000      CL = -0.4310
      Cm =  0.0296     CD =  0.08874   =>   CDf =  0.00963    CDp =  0.07911

 Side 1  free  transition at x/c =  0.6592   64
 Side 2  free  transition at x/c =  0.5595   69
 idif Ue xi dudx           2  0.17647424      1.34141445E-02   13.155833    
 Uenew xinew           3  0.11564312      8.79025459E-03

  35   rms: 0.2210E+00   max: 0.8952E+00   D at   65  1
       a = -2.000      CL = -0.7384
      Cm =  0.0591     CD =  0.09752   =>   CDf =  0.00886    CDp =  0.08866

 Side 1  free  transition at x/c =  0.6696   63
 Side 2  free  transition at x/c =  0.5483   70

  36   rms: 0.3197E+00   max: 0.1552E+01   T at   63  1   RLX: 0.379
       a = -2.000      CL = -0.6823
      Cm =  0.0673     CD =  0.07397   =>   CDf =  0.00878    CDp =  0.06519

 MRCHDU: Convergence failed at  86  side 2    Res =  0.1167E+02
 MRCHDU: Convergence failed at  87  side 2    Res =  0.1073E+02
 Side 1  free  transition at x/c =  0.6795   63
 Side 2  free  transition at x/c =  0.5723   71

  37   rms: 0.6118E+00   max: 0.2010E+01   D at   73  2   RLX: 0.536
       a = -2.000      CL = -0.1938
      Cm =  0.0099     CD =  0.06920   =>   CDf =  0.00963    CDp =  0.05957

 Side 1  free  transition at x/c =  0.6749   66
 Side 2  free  transition at x/c =  0.5711   68
 idif Ue xi dudx           3  0.18696488      1.41346455E-02   13.227420    
 Uenew xinew           4  0.12605505      9.52982903E-03

  38   rms: 0.8978E+00   max: 0.3428E+01   D at   73  1   RLX: 0.341
       a = -2.000      CL = -0.6515
      Cm =  0.0658     CD =  0.07359   =>   CDf =  0.00929    CDp =  0.06431

 Side 1  free  transition at x/c =  0.6748   63
 Side 2  free  transition at x/c =  0.5648   71

  39   rms: 0.2938E+01   max: 0.7911E+01   D at   81  2   RLX: 0.073
       a = -2.000      CL = -0.3174
      Cm =  0.0299     CD =  0.06109   =>   CDf =  0.00961    CDp =  0.05148

 Side 1  free  transition at x/c =  0.6824   66
 Side 2  free  transition at x/c =  0.5706   68
 idif Ue xi dudx           2  0.15768147      1.19137764E-02   13.235221    
 Uenew xinew           3  9.67357010E-02  7.30895996E-03

  40   rms: 0.3613E+01   max: 0.1170E+02   D at   76  1   RLX: 0.050
       a = -2.000      CL = -0.5919
      Cm =  0.0647     CD =  0.05223   =>   CDf =  0.00941    CDp =  0.04282

 Side 1  free  transition at x/c =  0.6865   64
 Side 2  free  transition at x/c =  0.5773   70

  41   rms: 0.4762E+00   max: 0.1857E+01   D at   72  2   RLX: 0.781
       a = -2.000      CL = -0.0931
      Cm = -0.0140     CD =  0.07378   =>   CDf =  0.00987    CDp =  0.06392

 Side 1  free  transition at x/c =  0.6698   67
 Side 2  free  transition at x/c =  0.5744   67
 idif Ue xi dudx           3  0.19087704      1.43736601E-02   13.279640    
 Uenew xinew           4  0.12994994      9.78565216E-03

  42   rms: 0.1475E+01   max: 0.3872E+01   D at   75  1   RLX: 0.159
       a = -2.000      CL = -0.5002
      Cm =  0.0416     CD =  0.06839   =>   CDf =  0.00931    CDp =  0.05909

 Side 1  free  transition at x/c =  0.6714   64
 Side 2  free  transition at x/c =  0.5721   70

  43   rms: 0.5587E+00   max: 0.2064E+01   D at   73  2   RLX: 0.612
       a = -2.000      CL = -0.0014
      Cm = -0.0251     CD =  0.07683   =>   CDf =  0.00968    CDp =  0.06715

 Side 1  free  transition at x/c =  0.6716   67
 Side 2  free  transition at x/c =  0.5748   67
 idif Ue xi dudx           1  0.11952622      9.02009010E-03   13.251112    
 Uenew xinew           2  5.87300174E-02  4.43208218E-03

  44   rms: 0.2388E+01   max: 0.6790E+01   D at   79  1   RLX: 0.080
       a = -2.000      CL = -0.3202
      Cm =  0.0188     CD =  0.06024   =>   CDf =  0.00932    CDp =  0.05091

 Side 1  free  transition at x/c =  0.6737   66
 Side 2  free  transition at x/c =  0.5795   68

  45   rms: 0.4865E+00   max: 0.2170E+01   D at   71  2   RLX: 0.691
       a = -2.000      CL =  0.0817
      Cm = -0.0388     CD =  0.07698   =>   CDf =  0.00969    CDp =  0.06729

 Side 1  free  transition at x/c =  0.6661   67
 Side 2  free  transition at x/c =  0.5762   66
 idif Ue xi dudx           2  0.14678378      1.10498667E-02   13.283761    
 Uenew xinew           3  8.60468149E-02  6.47759438E-03

  46   rms: 0.2259E+01   max: -.6217E+01   D at   74  2   RLX: 0.080
       a = -2.000      CL = -0.2282
      Cm =  0.0028     CD =  0.06485   =>   CDf =  0.00929    CDp =  0.05556

 Side 1  free  transition at x/c =  0.6705   66
 Side 2  free  transition at x/c =  0.5816   68

  47   rms: 0.5070E+00   max: 0.2364E+01   D at   71  2   RLX: 0.635
       a = -2.000      CL =  0.1467
      Cm = -0.0474     CD =  0.07839   =>   CDf =  0.00967    CDp =  0.06872

 Side 1  free  transition at x/c =  0.6670   68
 Side 2  free  transition at x/c =  0.5784   66
 idif Ue xi dudx           2  0.12806880      9.64772701E-03   13.274506    
 Uenew xinew           3  6.73741549E-02  5.07545471E-03

  48   rms: 0.3570E+01   max: -.9257E+01   D at   74  2   RLX: 0.054
       a = -2.000      CL = -0.1787
      Cm = -0.0047     CD =  0.06451   =>   CDf =  0.00935    CDp =  0.05515

 Side 1  free  transition at x/c =  0.6687   66
 Side 2  free  transition at x/c =  0.5813   68

  49   rms: 0.4632E+00   max: 0.2344E+01   D at   71  2   RLX: 0.640
       a = -2.000      CL =  0.1230
      Cm = -0.0437     CD =  0.07994   =>   CDf =  0.00964    CDp =  0.07030

 Side 1  free  transition at x/c =  0.6661   67
 Side 2  free  transition at x/c =  0.5770   66
 idif Ue xi dudx           2  0.13175668      9.92441177E-03   13.276019    
 Uenew xinew           3  7.10551068E-02  5.35213947E-03

  50   rms: 0.1891E+01   max: -.5148E+01   D at   74  2   RLX: 0.097
       a = -2.000      CL = -0.1885
      Cm = -0.0028     CD =  0.06390   =>   CDf =  0.00932    CDp =  0.05459

 Side 1  free  transition at x/c =  0.6715   66
 Side 2  free  transition at x/c =  0.5820   68

  51   rms: 0.5333E+00   max: 0.2505E+01   D at   71  2   RLX: 0.599
       a = -2.000      CL =  0.1803
      Cm = -0.0513     CD =  0.07645   =>   CDf =  0.00972    CDp =  0.06673

 Side 1  free  transition at x/c =  0.6680   69
 Side 2  free  transition at x/c =  0.5791   65
 idif Ue xi dudx           2  0.17161462      1.29280090E-02   13.274636    
 Uenew xinew           3  0.11108077      8.36789608E-03

  52   rms: 0.4292E+01   max: -.1139E+02   D at   72  2   RLX: 0.044
       a = -2.000      CL = -0.1319
      Cm = -0.0120     CD =  0.06289   =>   CDf =  0.00938    CDp =  0.05351

 Side 1  free  transition at x/c =  0.6698   67
 Side 2  free  transition at x/c =  0.5824   67

  53   rms: 0.5967E+00   max: 0.2954E+01   D at   83  2   RLX: 0.508
       a = -2.000      CL =  0.2187
      Cm = -0.0538     CD =  0.07943   =>   CDf =  0.00967    CDp =  0.06976

 Side 1  free  transition at x/c =  0.6684   69
 Side 2  free  transition at x/c =  0.5783   65
 idif Ue xi dudx           2  0.16238351      1.22346878E-02   13.272387    
 Uenew xinew           3  0.10185993      7.67457485E-03

  54   rms: 0.2640E+01   max: -.6640E+01   D at   72  2   RLX: 0.075
       a = -2.000      CL = -0.1062
      Cm = -0.0151     CD =  0.06336   =>   CDf =  0.00937    CDp =  0.05398

 Side 1  free  transition at x/c =  0.6706   67
 Side 2  free  transition at x/c =  0.5807   67

  55   rms: 0.5120E+00   max: 0.2628E+01   D at   70  2   RLX: 0.571
       a = -2.000      CL =  0.1751
      Cm = -0.0484     CD =  0.07836   =>   CDf =  0.00960    CDp =  0.06877

 Side 1  free  transition at x/c =  0.6669   69
 Side 2  free  transition at x/c =  0.5762   65
 idif Ue xi dudx           2  0.18021300      1.35784149E-02   13.272020    
 Uenew xinew           3  0.11969109      9.01830196E-03

  56   rms: 0.2923E+01   max: -.7405E+01   D at   72  2   RLX: 0.068
       a = -2.000      CL = -0.1526
      Cm = -0.0085     CD =  0.06524   =>   CDf =  0.00930    CDp =  0.05594

 Side 1  free  transition at x/c =  0.6685   67
 Side 2  free  transition at x/c =  0.5783   67

  57   rms: 0.4271E+00   max: 0.2339E+01   D at   70  2   RLX: 0.641
       a = -2.000      CL =  0.0734
      Cm = -0.0343     CD =  0.08044   =>   CDf =  0.00956    CDp =  0.07088

 Side 1  free  transition at x/c =  0.6654   67
 Side 2  free  transition at x/c =  0.5725   66
 idif Ue xi dudx           2  0.14424099      1.08582973E-02   13.283942    
 Uenew xinew           3  8.35031942E-02  6.28602505E-03

  58   rms: 0.1635E+01   max: -.4648E+01   D at   74  2   RLX: 0.108
       a = -2.000      CL = -0.2196
      Cm =  0.0024     CD =  0.06337   =>   CDf =  0.00923    CDp =  0.05415

 Side 1  free  transition at x/c =  0.6727   66
 Side 2  free  transition at x/c =  0.5793   68

  59   rms: 0.5520E+00   max: 0.2559E+01   D at   71  2   RLX: 0.586
       a = -2.000      CL =  0.1627
      Cm = -0.0468     CD =  0.07535   =>   CDf =  0.00969    CDp =  0.06566

 Side 1  free  transition at x/c =  0.6688   69
 Side 2  free  transition at x/c =  0.5773   65
 idif Ue xi dudx           2  0.17942931      1.35017633E-02   13.289324    
 Uenew xinew           3  0.11882849      8.94165039E-03

  60   rms: 0.3132E+01   max: -.8191E+01   D at   72  2   RLX: 0.061
       a = -2.000      CL = -0.1514
      Cm = -0.0086     CD =  0.06240   =>   CDf =  0.00935    CDp =  0.05305

 Side 1  free  transition at x/c =  0.6703   67
 Side 2  free  transition at x/c =  0.5803   67

  61   rms: 0.4438E+00   max: 0.2402E+01   D at   70  2   RLX: 0.624
       a = -2.000      CL =  0.0829
      Cm = -0.0365     CD =  0.07929   =>   CDf =  0.00960    CDp =  0.06969

 Side 1  free  transition at x/c =  0.6656   67
 Side 2  free  transition at x/c =  0.5740   66
 idif Ue xi dudx           2  0.14045276      1.05730295E-02   13.284060    
 Uenew xinew           3  7.97144175E-02  6.00075722E-03

  62   rms: 0.1695E+01   max: -.4840E+01   D at   74  2   RLX: 0.103
       a = -2.000      CL = -0.2096
      Cm =  0.0004     CD =  0.06322   =>   CDf =  0.00925    CDp =  0.05397

 Side 1  free  transition at x/c =  0.6726   66
 Side 2  free  transition at x/c =  0.5804   68

  63   rms: 0.5359E+00   max: 0.2501E+01   D at   71  2   RLX: 0.600
       a = -2.000      CL =  0.1580
      Cm = -0.0468     CD =  0.07621   =>   CDf =  0.00966    CDp =  0.06655

 Side 1  free  transition at x/c =  0.6681   68
 Side 2  free  transition at x/c =  0.5775   66
 idif Ue xi dudx           2  0.12195848      9.22203064E-03   13.224689    
 Uenew xinew           3  6.14916049E-02  4.64975834E-03

  64   rms: 0.3179E+01   max: -.8242E+01   D at   73  2   RLX: 0.061
       a = -2.000      CL = -0.1609
      Cm = -0.0074     CD =  0.06335   =>   CDf =  0.00934    CDp =  0.05401

 Side 1  free  transition at x/c =  0.6696   66
 Side 2  free  transition at x/c =  0.5803   68

  65   rms: 0.4456E+00   max: 0.2359E+01   D at   71  2   RLX: 0.636
       a = -2.000      CL =  0.0902
      Cm = -0.0375     CD =  0.07943   =>   CDf =  0.00962    CDp =  0.06982

 Side 1  free  transition at x/c =  0.6657   67
 Side 2  free  transition at x/c =  0.5744   66
 idif Ue xi dudx           2  0.13911781      1.05059147E-02   13.241856    
 Uenew xinew           3  7.85724372E-02  5.93364239E-03

  66   rms: 0.1715E+01   max: -.4847E+01   D at   74  2   RLX: 0.103
       a = -2.000      CL = -0.2060
      Cm = -0.0001     CD =  0.06354   =>   CDf =  0.00926    CDp =  0.05429

 Side 1  free  transition at x/c =  0.6724   66
 Side 2  free  transition at x/c =  0.5806   68

  67   rms: 0.5313E+00   max: 0.2518E+01   D at   71  2   RLX: 0.596
       a = -2.000      CL =  0.1520
      Cm = -0.0459     CD =  0.07631   =>   CDf =  0.00966    CDp =  0.06665

 Side 1  free  transition at x/c =  0.6679   68
 Side 2  free  transition at x/c =  0.5773   66
 idif Ue xi dudx           2  0.12595150      9.50872898E-03   13.245882    
 Uenew xinew           3  6.53877258E-02  4.93645668E-03

  68   rms: 0.3000E+01   max: -.7731E+01   D at   73  2   RLX: 0.065
       a = -2.000      CL = -0.1705
      Cm = -0.0059     CD =  0.06375   =>   CDf =  0.00934    CDp =  0.05442

 Side 1  free  transition at x/c =  0.6694   66
 Side 2  free  transition at x/c =  0.5800   68

  69   rms: 0.4467E+00   max: 0.2362E+01   D at   71  2   RLX: 0.635
       a = -2.000      CL =  0.0880
      Cm = -0.0372     CD =  0.07943   =>   CDf =  0.00961    CDp =  0.06982

 Side 1  free  transition at x/c =  0.6658   67
 Side 2  free  transition at x/c =  0.5744   66
 idif Ue xi dudx           2  0.14042908      1.05873346E-02   13.263875    
 Uenew xinew           3  7.97830373E-02  6.01506233E-03

  70   rms: 0.1718E+01   max: -.4835E+01   D at   74  2   RLX: 0.103
       a = -2.000      CL = -0.2099
      Cm =  0.0006     CD =  0.06351   =>   CDf =  0.00926    CDp =  0.05425

 Side 1  free  transition at x/c =  0.6723   66
 Side 2  free  transition at x/c =  0.5805   68

  71   rms: 0.5306E+00   max: 0.2513E+01   D at   71  2   RLX: 0.597
       a = -2.000      CL =  0.1498
      Cm = -0.0456     CD =  0.07626   =>   CDf =  0.00966    CDp =  0.06660

 Side 1  free  transition at x/c =  0.6679   68
 Side 2  free  transition at x/c =  0.5773   66
 idif Ue xi dudx           2  0.12680717      9.56189632E-03   13.261718    
 Uenew xinew           3  6.61709830E-02  4.98962402E-03

  72   rms: 0.2997E+01   max: -.7719E+01   D at   73  2   RLX: 0.065
       a = -2.000      CL = -0.1730
      Cm = -0.0055     CD =  0.06374   =>   CDf =  0.00934    CDp =  0.05441

 Side 1  free  transition at x/c =  0.6694   66
 Side 2  free  transition at x/c =  0.5800   68

  73   rms: 0.4461E+00   max: 0.2358E+01   D at   71  2   RLX: 0.636
       a = -2.000      CL =  0.0865
      Cm = -0.0370     CD =  0.07941   =>   CDf =  0.00962    CDp =  0.06979

 Side 1  free  transition at x/c =  0.6658   67
 Side 2  free  transition at x/c =  0.5744   66
 idif Ue xi dudx           2  0.14093120      1.06213093E-02   13.268723    
 Uenew xinew           3  8.02629963E-02  6.04903698E-03

  74   rms: 0.1714E+01   max: -.4827E+01   D at   74  2   RLX: 0.104
       a = -2.000      CL = -0.2115
      Cm =  0.0009     CD =  0.06350   =>   CDf =  0.00926    CDp =  0.05424

 Side 1  free  transition at x/c =  0.6723   66
 Side 2  free  transition at x/c =  0.5805   68

  75   rms: 0.5313E+00   max: 0.2511E+01   D at   71  2   RLX: 0.597
       a = -2.000      CL =  0.1501
      Cm = -0.0457     CD =  0.07626   =>   CDf =  0.00967    CDp =  0.06659

 Side 1  free  transition at x/c =  0.6679   68
 Side 2  free  transition at x/c =  0.5774   66
 idif Ue xi dudx           2  0.12591857      9.49239731E-03   13.265202    
 Uenew xinew           3  6.52664527E-02  4.92012501E-03

  76   rms: 0.3200E+01   max: -.8287E+01   D at   73  2   RLX: 0.060
       a = -2.000      CL = -0.1709
      Cm = -0.0057     CD =  0.06362   =>   CDf =  0.00934    CDp =  0.05428

 Side 1  free  transition at x/c =  0.6694   66
 Side 2  free  transition at x/c =  0.5801   68

  77   rms: 0.4408E+00   max: 0.2345E+01   D at   71  2   RLX: 0.640
       a = -2.000      CL =  0.0805
      Cm = -0.0362     CD =  0.07953   =>   CDf =  0.00962    CDp =  0.06991

 Side 1  free  transition at x/c =  0.6656   67
 Side 2  free  transition at x/c =  0.5742   66
 idif Ue xi dudx           2  0.14231770      1.07243061E-02   13.270574    
 Uenew xinew           3  8.16410184E-02  6.15203381E-03

  78   rms: 0.1690E+01   max: -.4791E+01   D at   74  2   RLX: 0.104
       a = -2.000      CL = -0.2152
      Cm =  0.0015     CD =  0.06337   =>   CDf =  0.00925    CDp =  0.05412

 Side 1  free  transition at x/c =  0.6725   66
 Side 2  free  transition at x/c =  0.5805   68

  79   rms: 0.5351E+00   max: 0.2513E+01   D at   71  2   RLX: 0.597
       a = -2.000      CL =  0.1524
      Cm = -0.0460     CD =  0.07607   =>   CDf =  0.00967    CDp =  0.06640

 Side 1  free  transition at x/c =  0.6681   68
 Side 2  free  transition at x/c =  0.5775   66
 idif Ue xi dudx           2  0.12441543      9.37688351E-03   13.268314    
 Uenew xinew           3  6.37490898E-02  4.80461121E-03

  80   rms: 0.3311E+01   max: -.8608E+01   D at   73  2   RLX: 0.058
       a = -2.000      CL = -0.1669
      Cm = -0.0063     CD =  0.06335   =>   CDf =  0.00934    CDp =  0.05401

 Side 1  free  transition at x/c =  0.6696   66
 Side 2  free  transition at x/c =  0.5803   68

  81   rms: 0.4405E+00   max: 0.2349E+01   D at   71  2   RLX: 0.639
       a = -2.000      CL =  0.0810
      Cm = -0.0363     CD =  0.07946   =>   CDf =  0.00962    CDp =  0.06984

 Side 1  free  transition at x/c =  0.6656   67
 Side 2  free  transition at x/c =  0.5742   66
 idif Ue xi dudx           2  0.14199752      1.06998682E-02   13.270959    
 Uenew xinew           3  8.13190714E-02  6.12759590E-03

  82   rms: 0.1691E+01   max: -.4799E+01   D at   74  2   RLX: 0.104
       a = -2.000      CL = -0.2143
      Cm =  0.0013     CD =  0.06336   =>   CDf =  0.00925    CDp =  0.05411

 Side 1  free  transition at x/c =  0.6725   66
 Side 2  free  transition at x/c =  0.5806   68

  83   rms: 0.5357E+00   max: 0.2516E+01   D at   71  2   RLX: 0.596
       a = -2.000      CL =  0.1533
      Cm = -0.0461     CD =  0.07608   =>   CDf =  0.00967    CDp =  0.06641

 Side 1  free  transition at x/c =  0.6681   68
 Side 2  free  transition at x/c =  0.5775   66
 idif Ue xi dudx           2  0.12399059      9.34696198E-03   13.265336    
 Uenew xinew           3  6.33378625E-02  4.77468967E-03

  84   rms: 0.3336E+01   max: -.8677E+01   D at   73  2   RLX: 0.058
       a = -2.000      CL = -0.1658
      Cm = -0.0065     CD =  0.06332   =>   CDf =  0.00935    CDp =  0.05398

 Side 1  free  transition at x/c =  0.6696   66
 Side 2  free  transition at x/c =  0.5804   68

  85   rms: 0.4401E+00   max: 0.2349E+01   D at   71  2   RLX: 0.639
       a = -2.000      CL =  0.0809
      Cm = -0.0363     CD =  0.07946   =>   CDf =  0.00962    CDp =  0.06984

 Side 1  free  transition at x/c =  0.6656   67
 Side 2  free  transition at x/c =  0.5742   66
 idif Ue xi dudx           2  0.14205545      1.07048750E-02   13.270164    
 Uenew xinew           3  8.13806430E-02  6.13260269E-03

  86   rms: 0.1690E+01   max: -.4797E+01   D at   74  2   RLX: 0.104
       a = -2.000      CL = -0.2144
      Cm =  0.0013     CD =  0.06336   =>   CDf =  0.00925    CDp =  0.05411

 Side 1  free  transition at x/c =  0.6725   66
 Side 2  free  transition at x/c =  0.5806   68

  87   rms: 0.5357E+00   max: 0.2516E+01   D at   71  2   RLX: 0.596
       a = -2.000      CL =  0.1532
      Cm = -0.0461     CD =  0.07610   =>   CDf =  0.00967    CDp =  0.06643

 Side 1  free  transition at x/c =  0.6681   68
 Side 2  free  transition at x/c =  0.5775   66
 idif Ue xi dudx           2  0.12407517      9.35256481E-03   13.266432    
 Uenew xinew           3  6.34174272E-02  4.78029251E-03

  88   rms: 0.3336E+01   max: -.8674E+01   D at   73  2   RLX: 0.058
       a = -2.000      CL = -0.1660
      Cm = -0.0065     CD =  0.06333   =>   CDf =  0.00935    CDp =  0.05398

 Side 1  free  transition at x/c =  0.6696   66
 Side 2  free  transition at x/c =  0.5803   68

  89   rms: 0.4401E+00   max: 0.2348E+01   D at   71  2   RLX: 0.639
       a = -2.000      CL =  0.0809
      Cm = -0.0363     CD =  0.07946   =>   CDf =  0.00962    CDp =  0.06984

 Side 1  free  transition at x/c =  0.6656   67
 Side 2  free  transition at x/c =  0.5742   66
 idif Ue xi dudx           2  0.14206670      1.07055902E-02   13.270329    
 Uenew xinew           3  8.13911408E-02  6.13331795E-03

  90   rms: 0.1691E+01   max: -.4799E+01   D at   74  2   RLX: 0.104
       a = -2.000      CL = -0.2144
      Cm =  0.0013     CD =  0.06336   =>   CDf =  0.00925    CDp =  0.05411

 Side 1  free  transition at x/c =  0.6725   66
 Side 2  free  transition at x/c =  0.5806   68

  91   rms: 0.5356E+00   max: 0.2516E+01   D at   71  2   RLX: 0.596
       a = -2.000      CL =  0.1532
      Cm = -0.0461     CD =  0.07610   =>   CDf =  0.00967    CDp =  0.06643

 Side 1  free  transition at x/c =  0.6681   68
 Side 2  free  transition at x/c =  0.5775   66
 idif Ue xi dudx           2  0.12406117      9.35232639E-03   13.265273    
 Uenew xinew           3  6.34087250E-02  4.78005409E-03

  92   rms: 0.3334E+01   max: -.8671E+01   D at   73  2   RLX: 0.058
       a = -2.000      CL = -0.1659
      Cm = -0.0065     CD =  0.06333   =>   CDf =  0.00935    CDp =  0.05398

 Side 1  free  transition at x/c =  0.6696   66
 Side 2  free  transition at x/c =  0.5803   68

  93   rms: 0.4401E+00   max: 0.2348E+01   D at   71  2   RLX: 0.639
       a = -2.000      CL =  0.0809
      Cm = -0.0363     CD =  0.07946   =>   CDf =  0.00962    CDp =  0.06984

 Side 1  free  transition at x/c =  0.6656   67
 Side 2  free  transition at x/c =  0.5742   66
 idif Ue xi dudx           2  0.14206094      1.07053518E-02   13.270085    
 Uenew xinew           3  8.13864917E-02  6.13307953E-03

  94   rms: 0.1691E+01   max: -.4799E+01   D at   74  2   RLX: 0.104
       a = -2.000      CL = -0.2144
      Cm =  0.0013     CD =  0.06336   =>   CDf =  0.00925    CDp =  0.05411

 Side 1  free  transition at x/c =  0.6725   66
 Side 2  free  transition at x/c =  0.5806   68

  95   rms: 0.5356E+00   max: 0.2516E+01   D at   71  2   RLX: 0.596
       a = -2.000      CL =  0.1532
      Cm = -0.0461     CD =  0.07610   =>   CDf =  0.00967    CDp =  0.06643

 Side 1  free  transition at x/c =  0.6681   68
 Side 2  free  transition at x/c =  0.5775   66
 idif Ue xi dudx           2  0.12408541      9.35304165E-03   13.266851    
 Uenew xinew           3  6.34257570E-02  4.78076935E-03

  96   rms: 0.3333E+01   max: -.8667E+01   D at   73  2   RLX: 0.058
       a = -2.000      CL = -0.1660
      Cm = -0.0065     CD =  0.06333   =>   CDf =  0.00935    CDp =  0.05398

 Side 1  free  transition at x/c =  0.6696   66
 Side 2  free  transition at x/c =  0.5803   68

  97   rms: 0.4401E+00   max: 0.2349E+01   D at   71  2   RLX: 0.639
       a = -2.000      CL =  0.0810
      Cm = -0.0363     CD =  0.07946   =>   CDf =  0.00962    CDp =  0.06984

 Side 1  free  transition at x/c =  0.6656   67
 Side 2  free  transition at x/c =  0.5742   66
 idif Ue xi dudx           2  0.14205439      1.07045174E-02   13.270509    
 Uenew xinew           3  8.13780129E-02  6.13224506E-03

  98   rms: 0.1691E+01   max: -.4799E+01   D at   74  2   RLX: 0.104
       a = -2.000      CL = -0.2144
      Cm =  0.0013     CD =  0.06336   =>   CDf =  0.00925    CDp =  0.05411

 Side 1  free  transition at x/c =  0.6725   66
 Side 2  free  transition at x/c =  0.5806   68

  99   rms: 0.5357E+00   max: 0.2516E+01   D at   71  2   RLX: 0.596
       a = -2.000      CL =  0.1532
      Cm = -0.0461     CD =  0.07610   =>   CDf =  0.00967    CDp =  0.06643

 Side 1  free  transition at x/c =  0.6681   68
 Side 2  free  transition at x/c =  0.5775   66
 idif Ue xi dudx           2  0.12408152      9.35149193E-03   13.268634    
 Uenew xinew           3  6.34137169E-02  4.77921963E-03

 100   rms: 0.3333E+01   max: -.8668E+01   D at   73  2   RLX: 0.058
       a = -2.000      CL = -0.1659
      Cm = -0.0065     CD =  0.06332   =>   CDf =  0.00935    CDp =  0.05398
 VISCAL:  Convergence failed

.OPERva   c>  
.OPERva   c>  
.OPERva   c>   Calculating wake trajectory ...
 Calculating source influence matrix ...

 Solving BL system ...

 Side 1  free  transition at x/c =  0.6696   66
 Side 2  free  transition at x/c =  0.5803   68

   1   rms: 0.5732E+00   max: 0.3087E+01   D at   71  2   RLX: 0.486
       a = -3.000      CL =  0.0353
      Cm = -0.0358     CD =  0.08094   =>   CDf =  0.00961    CDp =  0.07133

 Side 1  free  transition at x/c =  0.6734   67
 Side 2  free  transition at x/c =  0.5623   67
 idif Ue xi dudx           3  0.20287494      1.52852535E-02   13.272593    
 Uenew xinew           4  0.14198019      1.06972456E-02

   2   rms: 0.3090E+00   max: 0.1288E+01   T at   67  2
       a = -3.000      CL = -0.3886
      Cm =  0.0104     CD =  0.10474   =>   CDf =  0.00918    CDp =  0.09556

 Side 1  free  transition at x/c =  0.6766   64
 Side 2  free  transition at x/c =  0.5308   68

   3   rms: 0.8411E+00   max: 0.2121E+01   D at   81  2   RLX: 0.368
       a = -3.000      CL =  0.0770
      Cm = -0.0294     CD =  0.09924   =>   CDf =  0.00892    CDp =  0.09033

 Side 1  free  transition at x/c =  0.6759   67
 Side 2  free  transition at x/c =  0.5427   66
 idif Ue xi dudx           1  8.82188380E-02  6.66904449E-03   13.228107    
 Uenew xinew           2  2.75281761E-02  2.08103657E-03

   4   rms: 0.4362E+01   max: -.1426E+02   D at   69  2   RLX: 0.035
       a = -3.000      CL = -0.1109
      Cm = -0.0249     CD =  0.07066   =>   CDf =  0.00882    CDp =  0.06184

 Side 1  free  transition at x/c =  0.6801   66
 Side 2  free  transition at x/c =  0.5513   67
 idif Ue xi dudx           2  0.16746226      1.26994848E-02   13.186540    
 Uenew xinew           3  0.10674067      8.09466839E-03

   5   rms: 0.5556E+00   max: 0.2520E+01   D at   84  2   RLX: 0.595
       a = -3.000      CL = -0.4733
      Cm =  0.0287     CD =  0.08917   =>   CDf =  0.00978    CDp =  0.07939

 MRCHDU: Convergence failed at  84  side 2    Res =  0.3242E+01
 MRCHDU: Convergence failed at  85  side 2    Res =  0.2494E+01
 MRCHDU: Convergence failed at  86  side 2    Res =  0.2482E+01
 Side 1  free  transition at x/c =  0.6805   64
 Side 2  free  transition at x/c =  0.5291   68

   6   rms: 0.6845E+00   max: 0.1971E+01   D at   89  2   RLX: 0.485
       a = -3.000      CL =  0.0194
      Cm = -0.0262     CD =  0.08460   =>   CDf =  0.00900    CDp =  0.07560

 Side 1  free  transition at x/c =  0.6885   67
 Side 2  free  transition at x/c =  0.5391   66
 idif Ue xi dudx           1  0.11814531      8.93342495E-03   13.225085    
 Uenew xinew           2  5.74685112E-02  4.34541702E-03

   7   rms: 0.7501E+01   max: -.2410E+02   D at   73  2   RLX: 0.021
       a = -3.000      CL = -0.1763
      Cm = -0.0173     CD =  0.05648   =>   CDf =  0.00892    CDp =  0.04756

 Side 1  free  transition at x/c =  0.6927   66
 Side 2  free  transition at x/c =  0.5486   67
 idif Ue xi dudx           1  0.10353170      7.80594349E-03   13.263188    
 Uenew xinew           2  4.24571522E-02  3.20112705E-03

   8   rms: 0.3944E+00   max: 0.1879E+01   D at   84  2   RLX: 0.798
       a = -3.000      CL = -0.3042
      Cm =  0.0061     CD =  0.08097   =>   CDf =  0.00950    CDp =  0.07148

 MRCHDU: Convergence failed at  84  side 2    Res =  0.9621E+00
 MRCHDU: Convergence failed at  85  side 2    Res =  0.1039E+01
 Side 1  free  transition at x/c =  0.6930   65
 Side 2  free  transition at x/c =  0.5362   68

   9   rms: 0.2974E+01   max: 0.9001E+01   D at   77  2   RLX: 0.117
       a = -3.000      CL =  0.2068
      Cm = -0.0424     CD =  0.08253   =>   CDf =  0.00910    CDp =  0.07343

 Side 1  free  transition at x/c =  0.6879   68
 Side 2  free  transition at x/c =  0.5481   65

  10   rms: 0.1725E+01   max: 0.5354E+01   D at   69  2   RLX: 0.164
       a = -3.000      CL =  0.6088
      Cm = -0.0903     CD =  0.09198   =>   CDf =  0.00875    CDp =  0.08323

 Side 1  free  transition at x/c =  0.6765   71
 Side 2  free  transition at x/c =  0.9678   77

  11   rms: 0.3373E+02   max: -.6480E+03   T at   77  2   RLX: 0.001
       a = -3.000      CL =  0.5345
      Cm = -0.0510     CD =  0.05480   =>   CDf =  0.00851    CDp =  0.04629

 Side 1  free  transition at x/c =  0.6774   71
 Side 2  free  transition at x/c =  0.9226   76
 idif Ue xi dudx           1  7.79724419E-02  5.97429276E-03   13.051326    
 Uenew xinew           2  1.80928558E-02  1.38628483E-03

  12   rms: 0.1624E+01   max: 0.2169E+02   T at   76  2   RLX: 0.069
       a = -3.000      CL =  0.4152
      Cm = -0.0309     CD =  0.06838   =>   CDf =  0.00860    CDp =  0.05978

 Side 1  free  transition at x/c =  0.6814   70
 Side 2  free  transition at x/c =  0.9054   76

  13   rms: 0.1657E+01   max: 0.3254E+02   T at   76  2   RLX: 0.046
       a = -3.000      CL =  0.3472
      Cm = -0.0184     CD =  0.06013   =>   CDf =  0.00840    CDp =  0.05173

 Side 1  free  transition at x/c =  0.6827   70
 Side 2  free  transition at x/c =  0.8935   75

  14   rms: 0.3745E+01   max: -.4798E+02   T at   75  2   RLX: 0.010
       a = -3.000      CL =  0.3029
      Cm = -0.0086     CD =  0.06155   =>   CDf =  0.00834    CDp =  0.05320

 Side 1  free  transition at x/c =  0.6842   70
 Side 2  free  transition at x/c =  0.8574   74
 idif Ue xi dudx           1  6.86574355E-02  5.25093079E-03   13.075289    
 Uenew xinew           2  8.87365546E-03  6.78658485E-04

  15   rms: 0.1172E+01   max: 0.2683E+02   T at   74  2   RLX: 0.049
       a = -3.000      CL =  0.2765
      Cm = -0.0057     CD =  0.06004   =>   CDf =  0.00842    CDp =  0.05161

 Side 1  free  transition at x/c =  0.6842   69
 Side 2  free  transition at x/c =  0.8546   75

  16   rms: 0.1229E+01   max: 0.1703E+02   T at   75  2   RLX: 0.088
       a = -3.000      CL =  0.1456
      Cm =  0.0139     CD =  0.06296   =>   CDf =  0.00830    CDp =  0.05466

 Side 1  free  transition at x/c =  0.6865   69
 Side 2  free  transition at x/c =  0.7099   70

  17   rms: 0.5094E+00   max: 0.1128E+02   T at   70  2   RLX: 0.133
       a = -3.000      CL =  0.1612
      Cm =  0.0073     CD =  0.07442   =>   CDf =  0.00831    CDp =  0.06611

 Side 1  free  transition at x/c =  0.6837   69
 Side 2  free  transition at x/c =  0.7073   70
 idif Ue xi dudx           1  9.02700126E-02  6.91556931E-03   13.053157    
 Uenew xinew           2  3.07461414E-02  2.35545635E-03

  18   rms: 0.5012E+00   max: 0.7169E+01   T at   70  2   RLX: 0.209
       a = -3.000      CL =  0.0870
      Cm =  0.0089     CD =  0.08027   =>   CDf =  0.00837    CDp =  0.07190

 Side 1  free  transition at x/c =  0.6814   68
 Side 2  free  transition at x/c =  0.5956   67

  19   rms: 0.3023E+00   max: 0.5222E+01   T at   67  2   RLX: 0.287
       a = -3.000      CL =  0.1813
      Cm = -0.0085     CD =  0.08502   =>   CDf =  0.00826    CDp =  0.07676

 Side 1  free  transition at x/c =  0.6802   69
 Side 2  free  transition at x/c =  0.5876   66

  20   rms: 0.1890E+00   max: 0.1939E+01   T at   66  2   RLX: 0.774
       a = -3.000      CL =  0.2374
      Cm = -0.0447     CD =  0.10627   =>   CDf =  0.00842    CDp =  0.09785

 Side 1  free  transition at x/c =  0.6740   69
 Side 2  free  transition at x/c =  0.5623   65
 idif Ue xi dudx           1  8.31205845E-02  6.32679462E-03   13.137867    
 Uenew xinew           2  2.32104287E-02  1.76668167E-03

  21   rms: 0.1990E+00   max: 0.3368E+01   T at   65  2   RLX: 0.445
       a = -3.000      CL =  0.1746
      Cm = -0.0392     CD =  0.09796   =>   CDf =  0.00855    CDp =  0.08941

 Side 1  free  transition at x/c =  0.6734   68
 Side 2  free  transition at x/c =  0.5491   65

  22   rms: 0.2209E+00   max: 0.1412E+01   D at   67  2   RLX: 0.401
       a = -3.000      CL =  0.2907
      Cm = -0.0544     CD =  0.09858   =>   CDf =  0.00849    CDp =  0.09009

 Side 1  free  transition at x/c =  0.6748   69
 Side 2  free  transition at x/c =  0.5568   64
 idif Ue xi dudx           1  7.09325448E-02  5.37836552E-03   13.188495    
 Uenew xinew           2  1.07915197E-02  8.18252563E-04

  23   rms: 0.5906E-01   max: -.3184E+00   D at   64  2
       a = -3.000      CL =  0.2184
      Cm = -0.0497     CD =  0.11425   =>   CDf =  0.00863    CDp =  0.10561

 Side 1  free  transition at x/c =  0.6739   68
 Side 2  free  transition at x/c =  0.5531   65

  24   rms: 0.1434E+00   max: -.1260E+01   T at   65  2   RLX: 0.397
       a = -3.000      CL =  0.2618
      Cm = -0.0554     CD =  0.10110   =>   CDf =  0.00844    CDp =  0.09265

 Side 1  free  transition at x/c =  0.6741   69
 Side 2  free  transition at x/c =  0.5553   64

  25   rms: 0.6823E-01   max: -.3415E+00   D at   64  2
       a = -3.000      CL =  0.3192
      Cm = -0.0605     CD =  0.11118   =>   CDf =  0.00851    CDp =  0.10267

 Side 1  free  transition at x/c =  0.6745   69
 Side 2  free  transition at x/c =  0.5659   65
 idif Ue xi dudx           2  0.13478896      1.02924109E-02   13.095956    
 Uenew xinew           3  7.50699192E-02  5.73229790E-03

  26   rms: 0.2141E+00   max: 0.1721E+01   T at   65  2   RLX: 0.871
       a = -3.000      CL =  0.0763
      Cm = -0.0412     CD =  0.10344   =>   CDf =  0.00869    CDp =  0.09474

 Side 1  free  transition at x/c =  0.6748   67
 Side 2  free  transition at x/c =  0.5409   66

  27   rms: 0.5497E+01   max: -.1421E+02   T at   66  2   RLX: 0.035
       a = -3.000      CL =  0.3637
      Cm = -0.0648     CD =  0.08767   =>   CDf =  0.00858    CDp =  0.07909

 Side 1  free  transition at x/c =  0.6843   69
 Side 2  free  transition at x/c =  0.5639   65
 idif Ue xi dudx           2  0.15375297      1.16862059E-02   13.156791    
 Uenew xinew           3  9.37565118E-02  7.12609291E-03

  28   rms: 0.2676E+00   max: 0.1603E+01   T at   65  2   RLX: 0.935
       a = -3.000      CL =  0.0349
      Cm = -0.0397     CD =  0.09872   =>   CDf =  0.00893    CDp =  0.08979

 Side 1  free  transition at x/c =  0.6831   67
 Side 2  free  transition at x/c =  0.5436   66
 idif Ue xi dudx           3  0.19368401      1.46530867E-02   13.217967    
 Uenew xinew           4  0.13303988      1.00650787E-02

  29   rms: 0.2899E+01   max: 0.7803E+01   D at   75  1   RLX: 0.085
       a = -3.000      CL = -0.3773
      Cm =  0.0093     CD =  0.07861   =>   CDf =  0.00902    CDp =  0.06959

 Side 1  free  transition at x/c =  0.6803   64
 Side 2  free  transition at x/c =  0.5376   69
 idif Ue xi dudx           1  9.81297418E-02  7.47501850E-03   13.127692    
 Uenew xinew           2  3.71439196E-02  2.82943249E-03

  30   rms: 0.3504E+00   max: 0.1880E+01   D at   86  2   RLX: 0.798
       a = -3.000      CL = -0.6036
      Cm =  0.0481     CD =  0.10088   =>   CDf =  0.00949    CDp =  0.09139

 Side 1  free  transition at x/c =  0.6815   63
 Side 2  free  transition at x/c =  0.5204   69

  31   rms: 0.1923E+01   max: 0.6636E+01   D at   80  2   RLX: 0.170
       a = -3.000      CL = -0.0951
      Cm = -0.0141     CD =  0.10569   =>   CDf =  0.00899    CDp =  0.09670

 Side 1  free  transition at x/c =  0.6632   65
 Side 2  free  transition at x/c =  0.5296   66

  32   rms: 0.3298E+00   max: 0.1298E+01   D at   77  2   RLX: 0.662
       a = -3.000      CL =  0.2247
      Cm = -0.0479     CD =  0.11795   =>   CDf =  0.00841    CDp =  0.10954

 Side 1  free  transition at x/c =  0.6642   67
 Side 2  free  transition at x/c =  0.5462   65
 idif Ue xi dudx           3  0.19916397      1.51205063E-02   13.171780    
 Uenew xinew           4  0.13893901      1.05482340E-02

  33   rms: 0.8285E+00   max: 0.3136E+01   T at   65  2   RLX: 0.352
       a = -3.000      CL = -0.2156
      Cm = -0.0162     CD =  0.09247   =>   CDf =  0.00865    CDp =  0.08383

 Side 1  free  transition at x/c =  0.6719   65
 Side 2  free  transition at x/c =  0.5406   68
 idif Ue xi dudx           3  0.20947029      1.59190893E-02   13.158434    
 Uenew xinew           4  0.14862713      1.12951994E-02

  34   rms: 0.5304E+00   max: 0.1981E+01   D at   68  2   RLX: 0.592
       a = -3.000      CL = -0.7162
      Cm =  0.0537     CD =  0.08493   =>   CDf =  0.00993    CDp =  0.07500

 Side 1  free  transition at x/c =  0.6848   62
 Side 2  free  transition at x/c =  0.5250   70

  35   rms: 0.6431E+00   max: 0.2483E+01   D at   83  2   RLX: 0.530
       a = -3.000      CL = -0.2242
      Cm = -0.0093     CD =  0.10745   =>   CDf =  0.00926    CDp =  0.09819

 Side 1  free  transition at x/c =  0.6643   64
 Side 2  free  transition at x/c =  0.5303   67

  36   rms: 0.3696E+00   max: 0.1002E+01   D at   79  2   RLX: 0.678
       a = -3.000      CL =  0.1543
      Cm = -0.0477     CD =  0.10642   =>   CDf =  0.00865    CDp =  0.09777

 Side 1  free  transition at x/c =  0.6922   68
 Side 2  free  transition at x/c =  0.5438   65
 idif Ue xi dudx           1  0.10545044      7.98690319E-03   13.202919    
 Uenew xinew           2  4.50830944E-02  3.41463089E-03

  37   rms: 0.2667E+01   max: -.9578E+01   D at   71  2   RLX: 0.052
       a = -3.000      CL =  0.0196
      Cm = -0.0460     CD =  0.05438   =>   CDf =  0.00906    CDp =  0.04531

 Side 1  free  transition at x/c =  0.7087   68
 Side 2  free  transition at x/c =  0.5554   66

  38   rms: 0.5595E+01   max: 0.2079E+02   D at   78  2   RLX: 0.036
       a = -3.000      CL =  0.3177
      Cm = -0.0889     CD =  0.06414   =>   CDf =  0.00960    CDp =  0.05454

 Side 1  free  transition at x/c =  0.7066   70
 Side 2  free  transition at x/c =  0.5599   65
 idif Ue xi dudx           2  0.14084226      1.06421709E-02   13.234354    
 Uenew xinew           3  8.04921091E-02  6.08205795E-03

  39   rms: 0.1275E+01   max: -.3909E+01   D at   71  2   RLX: 0.128
       a = -3.000      CL =  0.1034
      Cm = -0.0719     CD =  0.05499   =>   CDf =  0.00967    CDp =  0.04532

 Side 1  free  transition at x/c =  0.7135   68
 Side 2  free  transition at x/c =  0.5676   67
 idif Ue xi dudx           1  0.11332070      8.54480267E-03   13.261945    
 Uenew xinew           2  5.24747930E-02  3.95679474E-03

  40   rms: 0.2298E+01   max: -.7408E+01   D at   77  2   RLX: 0.067
       a = -3.000      CL = -0.1526
      Cm = -0.0324     CD =  0.04940   =>   CDf =  0.00977    CDp =  0.03963

 Side 1  free  transition at x/c =  0.7150   67
 Side 2  free  transition at x/c =  0.5654   68
 idif Ue xi dudx           2  0.18229665      1.36773586E-02   13.328352    
 Uenew xinew           3  0.12092204      9.07254219E-03

  41   rms: 0.1322E+01   max: 0.3868E+01   D at   77  1   RLX: 0.156
       a = -3.000      CL = -0.5041
      Cm =  0.0235     CD =  0.05232   =>   CDf =  0.01013    CDp =  0.04219

 Side 1  free  transition at x/c =  0.7131   65
 Side 2  free  transition at x/c =  0.5547   69

  42   rms: 0.4475E+00   max: 0.2291E+01   D at   70  2   RLX: 0.655
       a = -3.000      CL = -0.1749
      Cm = -0.0294     CD =  0.06843   =>   CDf =  0.01025    CDp =  0.05818

 MRCHDU: Convergence failed at  79  side 2    Res =  0.1691E+01
 MRCHDU: Convergence failed at  80  side 2    Res =  0.1468E+01
 MRCHDU: Convergence failed at  81  side 2    Res =  0.3606E+01
 Side 1  free  transition at x/c =  0.6985   66
 Side 2  free  transition at x/c =  0.5616   69

  43   rms: 0.1105E+02   max: 0.3639E+02   D at   81  2   RLX: 0.023
       a = -3.000      CL =  0.1935
      Cm = -0.0598     CD =  0.06648   =>   CDf =  0.00947    CDp =  0.05702

 Side 1  free  transition at x/c =  0.7070   69
 Side 2  free  transition at x/c =  0.5639   66

  44   rms: 0.2592E+01   max: 0.9874E+01   D at   68  2   RLX: 0.115
       a = -3.000      CL =  0.5801
      Cm = -0.1024     CD =  0.08295   =>   CDf =  0.00932    CDp =  0.07363

 Side 1  free  transition at x/c =  0.7005   72
 Side 2  free  transition at x/c =  0.5821   63
 idif Ue xi dudx           1  7.17410296E-02  5.47039509E-03   13.114414    
 Uenew xinew           2  1.15719903E-02  8.82387161E-04

  45   rms: 0.2082E+00   max: 0.1574E+01   D at   64  2   RLX: 0.526
       a = -3.000      CL =  0.5298
      Cm = -0.0956     CD =  0.09511   =>   CDf =  0.00940    CDp =  0.08571

 Side 1  free  transition at x/c =  0.6953   70
 Side 2  free  transition at x/c =  0.5815   64
 idif Ue xi dudx           1  8.47741440E-02  6.45351410E-03   13.136122    
 Uenew xinew           2  2.47122217E-02  1.88124180E-03

  46   rms: 0.2433E+00   max: 0.1249E+01   D at   77  1   RLX: 0.939
       a = -3.000      CL =  0.3143
      Cm = -0.0522     CD =  0.12831   =>   CDf =  0.00912    CDp =  0.11919

 MRCHDU: Convergence failed at  77  side 2    Res =  0.3845E+03
 MRCHDU: Convergence failed at  78  side 2    Res =  0.1192E+03
 MRCHDU: Convergence failed at  79  side 2    Res =  0.1860E+04
 MRCHDU: Convergence failed at  80  side 2    Res =  0.4195E+03
 MRCHDU: Convergence failed at  81  side 2    Res =  0.1198E+03
 Side 1  free  transition at x/c =  0.6628   68
 Side 2  free  transition at x/c =  0.8952   76

  47   rms: 0.1829E+01   max: 0.3813E+02   T at   76  2   RLX: 0.023
       a = -3.000      CL =  0.1904
      Cm =  0.0187     CD =  0.06211   =>   CDf =  0.00800    CDp =  0.05411

 Side 1  free  transition at x/c =  0.6617   68
 Side 2  free  transition at x/c =  0.9166   77

  48   rms: 0.6826E+00   max: -.9820E+01   T at   77  2   RLX: 0.051
       a = -3.000      CL =  0.1856
      Cm =  0.0171     CD =  0.08462   =>   CDf =  0.00798    CDp =  0.07664

 Side 1  free  transition at x/c =  0.6585   68
 Side 2  free  transition at x/c =  0.9029   77

  49   rms: 0.8286E+00   max: 0.1505E+02   T at   77  2   RLX: 0.100
       a = -3.000      CL =  0.1163
      Cm =  0.0260     CD =  0.09331   =>   CDf =  0.00791    CDp =  0.08540

 Side 1  free  transition at x/c =  0.6525   68
 Side 2  free  transition at x/c =  0.7260   71
 idif Ue xi dudx           1  6.98157102E-02  5.34355640E-03   13.065402    
 Uenew xinew           2  1.02360034E-02  7.83443451E-04

  50   rms: 0.5635E+00   max: 0.8562E+01   T at   71  2   RLX: 0.175
       a = -3.000      CL =  0.1111
      Cm =  0.0120     CD =  0.12250   =>   CDf =  0.00795    CDp =  0.11454

 Side 1  free  transition at x/c =  0.6553   67
 Side 2  free  transition at x/c =  0.7102   71

  51   rms: 0.4590E+00   max: 0.3374E+01   T at   71  2   RLX: 0.394
       a = -3.000      CL =  0.4194
      Cm = -0.0398     CD =  0.09214   =>   CDf =  0.00780    CDp =  0.08434

 Side 1  free  transition at x/c =  0.6845   70
 Side 2  free  transition at x/c =  0.6763   68

  52   rms: 0.1561E+00   max: 0.2438E+01   T at   68  2   RLX: 0.615
       a = -3.000      CL =  0.5220
      Cm = -0.0674     CD =  0.09978   =>   CDf =  0.00845    CDp =  0.09132

 Side 1  free  transition at x/c =  0.6799   71
 Side 2  free  transition at x/c =  0.6469   66

  53   rms: 0.7002E-01   max: 0.9320E+00   T at   66  2
       a = -3.000      CL =  0.5972
      Cm = -0.0851     CD =  0.10554   =>   CDf =  0.00853    CDp =  0.09701

 Side 1  free  transition at x/c =  0.6723   71
 Side 2  free  transition at x/c =  0.6315   65

  54   rms: 0.1234E-01   max: -.2632E+00   D at   65  2
       a = -3.000      CL =  0.5973
      Cm = -0.0846     CD =  0.10493   =>   CDf =  0.00846    CDp =  0.09647

 Side 1  free  transition at x/c =  0.6726   71
 Side 2  free  transition at x/c =  0.6368   65

  55   rms: 0.3928E-01   max: -.1950E+00   T at   65  2
       a = -3.000      CL =  0.5472
      Cm = -0.0788     CD =  0.10947   =>   CDf =  0.00847    CDp =  0.10100

 Side 1  free  transition at x/c =  0.6736   71
 Side 2  free  transition at x/c =  0.6342   65

  56   rms: 0.3598E-01   max: -.1856E+00   D at   65  2
       a = -3.000      CL =  0.5885
      Cm = -0.0837     CD =  0.10569   =>   CDf =  0.00845    CDp =  0.09724

 Side 1  free  transition at x/c =  0.6727   71
 Side 2  free  transition at x/c =  0.6364   65

  57   rms: 0.1123E-01   max: -.5184E-01   T at   65  2
       a = -3.000      CL =  0.5726
      Cm = -0.0818     CD =  0.10679   =>   CDf =  0.00846    CDp =  0.09833

 Side 1  free  transition at x/c =  0.6730   71
 Side 2  free  transition at x/c =  0.6370   65

  58   rms: 0.1353E-02   max: -.1186E-01   D at   65  2
       a = -3.000      CL =  0.5716
      Cm = -0.0816     CD =  0.10687   =>   CDf =  0.00846    CDp =  0.09841

 Side 1  free  transition at x/c =  0.6730   71
 Side 2  free  transition at x/c =  0.6371   65

  59   rms: 0.1742E-03   max: -.5825E-03   D at   91  2
       a = -3.000      CL =  0.5714
      Cm = -0.0816     CD =  0.10690   =>   CDf =  0.00846    CDp =  0.09844

 Side 1  free  transition at x/c =  0.6730   71
 Side 2  free  transition at x/c =  0.6372   65

  60   rms: 0.1177E-04   max: 0.4558E-04   D at   91  2
       a = -3.000      CL =  0.5714
      Cm = -0.0816     CD =  0.10690   =>   CDf =  0.00846    CDp =  0.09844
 plradd ia,ip,cpol            2          82  0.17985016    

 Point added to stored polar  1
 Save file unspecified or not available
 Dump file unspecified or not available

.OPERva   c>  
.OPERva   c>  
.OPERva   c>   Calculating wake trajectory ...
 Calculating source influence matrix ...

 Solving BL system ...

 Side 1  free  transition at x/c =  0.6730   71
 Side 2  free  transition at x/c =  0.6372   65

   1   rms: 0.3852E+00   max: 0.2127E+01   T at   65  2   RLX: 0.263
       a = -4.000      CL =  0.6886
      Cm = -0.0974     CD =  0.09703   =>   CDf =  0.00843    CDp =  0.08860

 Side 1  free  transition at x/c =  0.6760   71
 Side 2  free  transition at x/c =  0.6102   64
 idif Ue xi dudx           1  6.09926507E-02  4.83548641E-03   12.613550    
 Uenew xinew           2  3.12158233E-03  2.47478485E-04

   2   rms: 0.1124E+00   max: -.5658E+00   D at   66  2   RLX: 0.884
       a = -4.000      CL =  0.6086
      Cm = -0.0934     CD =  0.11706   =>   CDf =  0.00855    CDp =  0.10851

 Side 1  free  transition at x/c =  0.6937   70
 Side 2  free  transition at x/c =  0.5985   65

   3   rms: 0.1620E+01   max: 0.1002E+02   T at   70  1   RLX: 0.084
       a = -4.000      CL =  0.4686
      Cm = -0.0768     CD =  0.13480   =>   CDf =  0.00835    CDp =  0.12645

 Side 1  free  transition at x/c =  0.6650   69
 Side 2  free  transition at x/c =  0.5868   65
 idif Ue xi dudx           4  0.25320572      1.95481777E-02   12.952907    
 Uenew xinew           5  0.19398150      1.49759054E-02

   4   rms: 0.2968E+00   max: 0.9494E+00   T at   65  2
       a = -4.000      CL = -0.0284
      Cm = -0.0071     CD =  0.16902   =>   CDf =  0.00848    CDp =  0.16055

 Side 1  free  transition at x/c =  0.6527   65
 Side 2  free  transition at x/c =  0.5788   68

   5   rms: 0.1759E+00   max: -.5819E+00   D at   73  1   RLX: 0.859
       a = -4.000      CL =  0.1949
      Cm = -0.0328     CD =  0.14837   =>   CDf =  0.00729    CDp =  0.14107

 Side 1  free  transition at x/c =  0.6684   68
 Side 2  free  transition at x/c =  0.5813   66

   6   rms: 0.7657E-01   max: -.4261E+00   T at   68  1
       a = -4.000      CL =  0.2356
      Cm = -0.0458     CD =  0.13567   =>   CDf =  0.00773    CDp =  0.12793

 Side 1  free  transition at x/c =  0.6809   68
 Side 2  free  transition at x/c =  0.5826   66

   7   rms: 0.2244E+00   max: -.1046E+01   T at   68  1   RLX: 0.478
       a = -4.000      CL =  0.3816
      Cm = -0.0696     CD =  0.12036   =>   CDf =  0.00789    CDp =  0.11247

 Side 1  free  transition at x/c =  0.7131   70
 Side 2  free  transition at x/c =  0.5845   66

   8   rms: 0.5415E+00   max: -.2588E+01   T at   66  2   RLX: 0.193
       a = -4.000      CL =  0.5214
      Cm = -0.0860     CD =  0.09814   =>   CDf =  0.00841    CDp =  0.08973

 Side 1  free  transition at x/c =  0.7096   71
 Side 2  free  transition at x/c =  0.5854   65

   9   rms: 0.1373E+00   max: -.1119E+01   T at   65  2   RLX: 0.447
       a = -4.000      CL =  0.5777
      Cm = -0.0888     CD =  0.10496   =>   CDf =  0.00850    CDp =  0.09645

 Side 1  free  transition at x/c =  0.7058   71
 Side 2  free  transition at x/c =  0.5890   65

  10   rms: 0.5234E-01   max: -.4686E+00   T at   65  2
       a = -4.000      CL =  0.6088
      Cm = -0.0946     CD =  0.10607   =>   CDf =  0.00847    CDp =  0.09760

 Side 1  free  transition at x/c =  0.7034   71
 Side 2  free  transition at x/c =  0.5996   65

  11   rms: 0.2956E-01   max: -.2255E+00   D at   65  2
       a = -4.000      CL =  0.5767
      Cm = -0.0911     CD =  0.10746   =>   CDf =  0.00843    CDp =  0.09903

 Side 1  free  transition at x/c =  0.7040   71
 Side 2  free  transition at x/c =  0.6061   65

  12   rms: 0.2544E-01   max: -.2087E+00   T at   65  2
       a = -4.000      CL =  0.5448
      Cm = -0.0876     CD =  0.10955   =>   CDf =  0.00842    CDp =  0.10113

 Side 1  free  transition at x/c =  0.7047   71
 Side 2  free  transition at x/c =  0.6067   65

  13   rms: 0.7377E-02   max: -.1232E+00   D at   65  2
       a = -4.000      CL =  0.5454
      Cm = -0.0876     CD =  0.10927   =>   CDf =  0.00841    CDp =  0.10086

 Side 1  free  transition at x/c =  0.7045   71
 Side 2  free  transition at x/c =  0.6087   65

  14   rms: 0.8250E-02   max: -.3728E-01   T at   65  2
       a = -4.000      CL =  0.5350
      Cm = -0.0864     CD =  0.11026   =>   CDf =  0.00841    CDp =  0.10185

 Side 1  free  transition at x/c =  0.7049   71
 Side 2  free  transition at x/c =  0.6089   65

  15   rms: 0.1486E-02   max: -.9824E-02   D at   65  2
       a = -4.000      CL =  0.5364
      Cm = -0.0866     CD =  0.11008   =>   CDf =  0.00841    CDp =  0.10167

 Side 1  free  transition at x/c =  0.7048   71
 Side 2  free  transition at x/c =  0.6090   65

  16   rms: 0.1487E-03   max: -.7343E-03   T at   65  2
       a = -4.000      CL =  0.5363
      Cm = -0.0866     CD =  0.11010   =>   CDf =  0.00841    CDp =  0.10170

 Side 1  free  transition at x/c =  0.7048   71
 Side 2  free  transition at x/c =  0.6090   65

  17   rms: 0.2458E-05   max: 0.1365E-04   T at   65  2
       a = -4.000      CL =  0.5363
      Cm = -0.0866     CD =  0.11010   =>   CDf =  0.00841    CDp =  0.10170
 plradd ia,ip,cpol            3          81  0.19090612    

 Point added to stored polar  1
 Save file unspecified or not available
 Dump file unspecified or not available

.OPERva   c>  
.OPERva   c>  
.OPERva   c>   Calculating wake trajectory ...
 Calculating source influence matrix ...

 Solving BL system ...

 Side 1  free  transition at x/c =  0.7048   71
 Side 2  free  transition at x/c =  0.6090   65

   1   rms: 0.4835E+00   max: 0.2931E+01   T at   65  2   RLX: 0.205
       a = -5.000      CL =  0.6452
      Cm = -0.1001     CD =  0.10061   =>   CDf =  0.00838    CDp =  0.09223

 Side 1  free  transition at x/c =  0.7071   71
 Side 2  free  transition at x/c =  0.5840   65
 idif Ue xi dudx           1  8.77828375E-02  6.87241554E-03   12.773214    
 Uenew xinew           2  2.93802228E-02  2.30014324E-03

   2   rms: 0.1758E+00   max: 0.9810E+00   T at   65  2   RLX: 0.855
       a = -5.000      CL =  0.4997
      Cm = -0.0909     CD =  0.13172   =>   CDf =  0.00849    CDp =  0.12323

 Side 1  free  transition at x/c =  0.7322   71
 Side 2  free  transition at x/c =  0.5820   65

   3   rms: 0.3159E-01   max: 0.3596E+00   D at   66  2
       a = -5.000      CL =  0.4883
      Cm = -0.0894     CD =  0.11640   =>   CDf =  0.00836    CDp =  0.10804

 Side 1  free  transition at x/c =  0.7380   71
 Side 2  free  transition at x/c =  0.5808   65

   4   rms: 0.1319E-01   max: 0.8527E-01   D at   66  2
       a = -5.000      CL =  0.5002
      Cm = -0.0908     CD =  0.11409   =>   CDf =  0.00833    CDp =  0.10576

 Side 1  free  transition at x/c =  0.7387   71
 Side 2  free  transition at x/c =  0.5811   65

   5   rms: 0.2030E-02   max: -.1350E-01   T at   65  2
       a = -5.000      CL =  0.4980
      Cm = -0.0906     CD =  0.11413   =>   CDf =  0.00834    CDp =  0.10579

 Side 1  free  transition at x/c =  0.7388   71
 Side 2  free  transition at x/c =  0.5813   65

   6   rms: 0.2977E-03   max: -.1633E-02   T at   65  2
       a = -5.000      CL =  0.4977
      Cm = -0.0905     CD =  0.11417   =>   CDf =  0.00835    CDp =  0.10583

 Side 1  free  transition at x/c =  0.7389   71
 Side 2  free  transition at x/c =  0.5813   65

   7   rms: 0.1747E-04   max: 0.1027E-03   T at   65  2
       a = -5.000      CL =  0.4977
      Cm = -0.0905     CD =  0.11417   =>   CDf =  0.00835    CDp =  0.10583
 plradd ia,ip,cpol            4          80  0.20249851    

 Point added to stored polar  1
 Save file unspecified or not available
 Dump file unspecified or not available

.OPERva   c>  
.OPERva   c>  
.OPERva   c>   Calculating wake trajectory ...
 Calculating source influence matrix ...

 Solving BL system ...

 Side 1  free  transition at x/c =  0.7389   71
 Side 2  free  transition at x/c =  0.5813   65

   1   rms: 0.5814E+00   max: 0.3958E+01   T at   65  2   RLX: 0.167
       a = -6.000      CL =  0.5993
      Cm = -0.1023     CD =  0.10491   =>   CDf =  0.00821    CDp =  0.09671

 Side 1  free  transition at x/c =  0.7410   72
 Side 2  free  transition at x/c =  0.5585   64
 idif Ue xi dudx           2  0.12674986      9.66072083E-03   13.120124    
 Uenew xinew           3  6.67610765E-02  5.08844852E-03

   2   rms: 0.1549E+00   max: 0.8721E+00   T at   64  2   RLX: 0.773
       a = -6.000      CL =  0.5002
      Cm = -0.0983     CD =  0.12859   =>   CDf =  0.00858    CDp =  0.12001

 Side 1  free  transition at x/c =  0.7758   71
 Side 2  free  transition at x/c =  0.5558   65

   3   rms: 0.4958E-01   max: 0.2231E+00   D at   72  1
       a = -6.000      CL =  0.4357
      Cm = -0.0920     CD =  0.12124   =>   CDf =  0.00841    CDp =  0.11283

 Side 1  free  transition at x/c =  0.7800   71
 Side 2  free  transition at x/c =  0.5559   65

   4   rms: 0.1077E-01   max: -.2986E-01   D at   72  1
       a = -6.000      CL =  0.4499
      Cm = -0.0937     CD =  0.11951   =>   CDf =  0.00835    CDp =  0.11116

 Side 1  free  transition at x/c =  0.7809   71
 Side 2  free  transition at x/c =  0.5557   65

   5   rms: 0.3000E-02   max: -.1572E-01   T at   65  2
       a = -6.000      CL =  0.4488
      Cm = -0.0937     CD =  0.11938   =>   CDf =  0.00837    CDp =  0.11102

 Side 1  free  transition at x/c =  0.7816   71
 Side 2  free  transition at x/c =  0.5559   65

   6   rms: 0.2517E-02   max: -.1358E-01   T at   71  1
       a = -6.000      CL =  0.4480
      Cm = -0.0937     CD =  0.11940   =>   CDf =  0.00838    CDp =  0.11102

 Side 1  free  transition at x/c =  0.7823   71
 Side 2  free  transition at x/c =  0.5560   65

   7   rms: 0.2561E-01   max: -.1592E+00   T at   71  1
       a = -6.000      CL =  0.4441
      Cm = -0.0945     CD =  0.11892   =>   CDf =  0.00839    CDp =  0.11053

 Side 1  free  transition at x/c =  0.7934   72
 Side 2  free  transition at x/c =  0.5561   65

   8   rms: 0.3688E-01   max: 0.3511E+00   D at   73  1
       a = -6.000      CL =  0.4398
      Cm = -0.0936     CD =  0.12034   =>   CDf =  0.00846    CDp =  0.11187

 Side 1  free  transition at x/c =  0.7837   72
 Side 2  free  transition at x/c =  0.5564   65

   9   rms: 0.9158E-02   max: -.4703E-01   D at   80  1
       a = -6.000      CL =  0.4470
      Cm = -0.0938     CD =  0.11948   =>   CDf =  0.00839    CDp =  0.11109

 Side 1  free  transition at x/c =  0.7830   72
 Side 2  free  transition at x/c =  0.5561   65

  10   rms: 0.9112E-03   max: 0.6158E-02   D at   66  2
       a = -6.000      CL =  0.4473
      Cm = -0.0937     CD =  0.11944   =>   CDf =  0.00840    CDp =  0.11105

 Side 1  free  transition at x/c =  0.7829   72
 Side 2  free  transition at x/c =  0.5561   65

  11   rms: 0.1479E-03   max: -.5862E-03   D at   95  2
       a = -6.000      CL =  0.4472
      Cm = -0.0937     CD =  0.11947   =>   CDf =  0.00840    CDp =  0.11107

 Side 1  free  transition at x/c =  0.7829   72
 Side 2  free  transition at x/c =  0.5561   65

  12   rms: 0.8152E-05   max: -.2874E-04   T at   66  2
       a = -6.000      CL =  0.4472
      Cm = -0.0937     CD =  0.11947   =>   CDf =  0.00840    CDp =  0.11107
 plradd ia,ip,cpol            5          79  0.21465264    

 Point added to stored polar  1
 Save file unspecified or not available
 Dump file unspecified or not available

.OPERva   c>  
.OPERva   c>  
.OPERva   c>   Calculating wake trajectory ...
 Calculating source influence matrix ...

 Solving BL system ...

 Side 1  free  transition at x/c =  0.7829   72
 Side 2  free  transition at x/c =  0.5561   65

   1   rms: 0.5167E+00   max: -.2464E+01   T at   66  2   RLX: 0.203
       a = -7.000      CL =  0.5571
      Cm = -0.1055     CD =  0.10953   =>   CDf =  0.00826    CDp =  0.10127

 Side 1  free  transition at x/c =  0.7843   73
 Side 2  free  transition at x/c =  0.5329   64
 idif Ue xi dudx           2  0.16548030      1.28035545E-02   12.924560    
 Uenew xinew           3  0.10654286      8.24344158E-03

   2   rms: 0.1821E+00   max: 0.1102E+01   T at   64  2   RLX: 0.989
       a = -7.000      CL =  0.3744
      Cm = -0.0925     CD =  0.13781   =>   CDf =  0.00859    CDp =  0.12922

 Side 1  free  transition at x/c =  0.8049   71
 Side 2  free  transition at x/c =  0.5281   65

   3   rms: 0.1047E+00   max: 0.7462E+00   T at   71  1
       a = -7.000      CL =  0.3303
      Cm = -0.0736     CD =  0.13924   =>   CDf =  0.00819    CDp =  0.13105

 Side 1  free  transition at x/c =  0.7726   70
 Side 2  free  transition at x/c =  0.5051   64

   4   rms: 0.1051E+01   max: -.7386E+01   T at   70  1   RLX: 0.068
       a = -7.000      CL =  0.3933
      Cm = -0.0872     CD =  0.16046   =>   CDf =  0.00785    CDp =  0.15261

 Side 1  free  transition at x/c =  0.8051   71
 Side 2  free  transition at x/c =  0.5044   64
 idif Ue xi dudx           1  8.04897770E-02  6.13474846E-03   13.120306    
 Uenew xinew           2  2.02937089E-02  1.54674053E-03

   5   rms: 0.1134E+00   max: 0.6263E+00   T at   65  2
       a = -7.000      CL =  0.3051
      Cm = -0.0870     CD =  0.13862   =>   CDf =  0.00829    CDp =  0.13033

 Side 1  free  transition at x/c =  0.8182   71
 Side 2  free  transition at x/c =  0.5922   69

   6   rms: 0.3788E+00   max: 0.3718E+01   T at   69  2   RLX: 0.403
       a = -7.000      CL =  0.3213
      Cm = -0.0934     CD =  0.12483   =>   CDf =  0.00825    CDp =  0.11659

 Side 1  free  transition at x/c =  0.8157   71
 Side 2  free  transition at x/c =  0.5533   67

   7   rms: 0.4570E+00   max: 0.2340E+01   T at   67  2   RLX: 0.329
       a = -7.000      CL =  0.4824
      Cm = -0.1006     CD =  0.11200   =>   CDf =  0.00801    CDp =  0.10399

 Side 1  free  transition at x/c =  0.8158   73
 Side 2  free  transition at x/c =  0.5234   64
 idif Ue xi dudx           1  6.46798089E-02  5.09643555E-03   12.691186    
 Uenew xinew           2  6.65225321E-03  5.24163246E-04

   8   rms: 0.5675E-01   max: 0.8114E+00   T at   66  2   RLX: 0.708
       a = -7.000      CL =  0.4717
      Cm = -0.1016     CD =  0.12094   =>   CDf =  0.00838    CDp =  0.11256

 Side 1  free  transition at x/c =  0.8151   72
 Side 2  free  transition at x/c =  0.5222   65

   9   rms: 0.3139E-01   max: -.4399E+00   D at   67  2
       a = -7.000      CL =  0.4357
      Cm = -0.0978     CD =  0.12248   =>   CDf =  0.00823    CDp =  0.11425

 Side 1  free  transition at x/c =  0.8155   72
 Side 2  free  transition at x/c =  0.5258   65

  10   rms: 0.1681E-01   max: -.1571E+00   T at   65  2
       a = -7.000      CL =  0.4157
      Cm = -0.0959     CD =  0.12426   =>   CDf =  0.00824    CDp =  0.11603

 Side 1  free  transition at x/c =  0.8158   72
 Side 2  free  transition at x/c =  0.5277   65

  11   rms: 0.6385E-02   max: -.4472E-01   T at   65  2
       a = -7.000      CL =  0.4090
      Cm = -0.0953     CD =  0.12489   =>   CDf =  0.00824    CDp =  0.11664

 Side 1  free  transition at x/c =  0.8158   72
 Side 2  free  transition at x/c =  0.5287   65

  12   rms: 0.3219E-02   max: -.1811E-01   T at   65  2
       a = -7.000      CL =  0.4053
      Cm = -0.0949     CD =  0.12525   =>   CDf =  0.00825    CDp =  0.11700

 Side 1  free  transition at x/c =  0.8159   72
 Side 2  free  transition at x/c =  0.5289   65

  13   rms: 0.1491E-03   max: -.1173E-02   D at   65  2
       a = -7.000      CL =  0.4054
      Cm = -0.0949     CD =  0.12523   =>   CDf =  0.00825    CDp =  0.11699

 Side 1  free  transition at x/c =  0.8159   72
 Side 2  free  transition at x/c =  0.5289   65

  14   rms: 0.2056E-04   max: -.1052E-03   T at   65  2
       a = -7.000      CL =  0.4054
      Cm = -0.0949     CD =  0.12523   =>   CDf =  0.00825    CDp =  0.11699
 plradd ia,ip,cpol            6          78  0.22739430    

 Point added to stored polar  1
 Save file unspecified or not available
 Dump file unspecified or not available

.OPERva   c>  
.OPERva   c>  
.OPERva   c>   Calculating wake trajectory ...
 Calculating source influence matrix ...

 Solving BL system ...

 Side 1  free  transition at x/c =  0.8159   72
 Side 2  free  transition at x/c =  0.5289   65

   1   rms: 0.6839E+00   max: 0.4858E+01   T at   65  2   RLX: 0.138
       a = -8.000      CL =  0.4943
      Cm = -0.1036     CD =  0.11688   =>   CDf =  0.00822    CDp =  0.10866

 Side 1  free  transition at x/c =  0.8169   72
 Side 2  free  transition at x/c =  0.5090   65
 idif Ue xi dudx           1  0.11836321      9.16159153E-03   12.919503    
 Uenew xinew           2  5.90884276E-02  4.57358360E-03

   2   rms: 0.1794E+00   max: 0.1062E+01   T at   65  2
       a = -8.000      CL =  0.2980
      Cm = -0.0872     CD =  0.14429   =>   CDf =  0.00832    CDp =  0.13597

 Side 1  free  transition at x/c =  0.8388   71
 Side 2  free  transition at x/c =  0.5017   65

   3   rms: 0.7323E-01   max: 0.5908E+00   D at   66  2
       a = -8.000      CL =  0.2918
      Cm = -0.0768     CD =  0.14210   =>   CDf =  0.00812    CDp =  0.13397

 Side 1  free  transition at x/c =  0.8207   71
 Side 2  free  transition at x/c =  0.4868   65

   4   rms: 0.5261E-01   max: -.3640E+00   D at   65  2
       a = -8.000      CL =  0.3229
      Cm = -0.0849     CD =  0.13585   =>   CDf =  0.00791    CDp =  0.12794

 Side 1  free  transition at x/c =  0.8360   71
 Side 2  free  transition at x/c =  0.4938   65
 idif Ue xi dudx           1  0.11581648      9.03463364E-03   12.819167    
 Uenew xinew           2  5.67865670E-02  4.42981720E-03

   5   rms: 0.1601E+00   max: 0.1194E+01   T at   71  1   RLX: 0.805
       a = -8.000      CL =  0.1263
      Cm = -0.0479     CD =  0.15540   =>   CDf =  0.00820    CDp =  0.14721

 Side 1  free  transition at x/c =  0.7976   69
 Side 2  free  transition at x/c =  0.4822   66

   6   rms: 0.2619E+00   max: -.1252E+01   T at   66  2   RLX: 0.399
       a = -8.000      CL =  0.2656
      Cm = -0.0664     CD =  0.15449   =>   CDf =  0.00773    CDp =  0.14676

 Side 1  free  transition at x/c =  0.8241   70
 Side 2  free  transition at x/c =  0.4850   66

   7   rms: 0.7747E-01   max: -.4084E+00   D at   66  2
       a = -8.000      CL =  0.3510
      Cm = -0.0886     CD =  0.13631   =>   CDf =  0.00777    CDp =  0.12854

 Side 1  free  transition at x/c =  0.8383   71
 Side 2  free  transition at x/c =  0.4916   65
 idif Ue xi dudx           1  9.96275619E-02  7.78102875E-03   12.803906    
 Uenew xinew           2  4.06679250E-02  3.17621231E-03

   8   rms: 0.1147E+00   max: 0.8002E+00   T at   71  1
       a = -8.000      CL =  0.1722
      Cm = -0.0577     CD =  0.14958   =>   CDf =  0.00822    CDp =  0.14136

 Side 1  free  transition at x/c =  0.8051   69
 Side 2  free  transition at x/c =  0.4864   66

   9   rms: 0.8584E+00   max: -.5145E+01   T at   69  1   RLX: 0.097
       a = -8.000      CL =  0.2956
      Cm = -0.0741     CD =  0.15010   =>   CDf =  0.00767    CDp =  0.14243

 Side 1  free  transition at x/c =  0.8371   71
 Side 2  free  transition at x/c =  0.4908   65
 idif Ue xi dudx           1  0.10454395      8.15629959E-03   12.817571    
 Uenew xinew           2  4.55213860E-02  3.55148315E-03

  10   rms: 0.9473E-01   max: 0.7104E+00   T at   71  1
       a = -8.000      CL =  0.1583
      Cm = -0.0543     CD =  0.15037   =>   CDf =  0.00818    CDp =  0.14219

 Side 1  free  transition at x/c =  0.8060   69
 Side 2  free  transition at x/c =  0.4861   66

  11   rms: 0.2218E+02   max: -.1341E+03   T at   69  1   RLX: 0.004
       a = -8.000      CL =  0.2822
      Cm = -0.0707     CD =  0.15251   =>   CDf =  0.00767    CDp =  0.14484

 Side 1  free  transition at x/c =  0.8375   71
 Side 2  free  transition at x/c =  0.4903   65
 idif Ue xi dudx           1  9.41499099E-02  7.33304024E-03   12.839137    
 Uenew xinew           2  3.50280404E-02  2.72822380E-03

  12   rms: 0.7305E-01   max: 0.5814E+00   T at   71  1
       a = -8.000      CL =  0.1869
      Cm = -0.0597     CD =  0.14820   =>   CDf =  0.00817    CDp =  0.14002

 Side 1  free  transition at x/c =  0.8101   69
 Side 2  free  transition at x/c =  0.4881   66
 idif Ue xi dudx           1  0.10514169      8.18371773E-03   12.847669    
 Uenew xinew           2  4.57354896E-02  3.55982780E-03

  13   rms: 0.2233E+00   max: 0.1599E+01   T at   69  1   RLX: 0.530
       a = -8.000      CL = -0.0016
      Cm = -0.0266     CD =  0.16706   =>   CDf =  0.00799    CDp =  0.15907

 Side 1  free  transition at x/c =  0.7819   67
 Side 2  free  transition at x/c =  0.4815   66
 idif Ue xi dudx           1  6.39928058E-02  4.96757030E-03   12.882113    
 Uenew xinew           2  4.14783834E-03  3.21984291E-04

  14   rms: 0.4421E+00   max: 0.3771E+01   T at   67  1   RLX: 0.218
       a = -8.000      CL = -0.0761
      Cm = -0.0024     CD =  0.18386   =>   CDf =  0.00773    CDp =  0.17613

 Side 1  free  transition at x/c =  0.7593   66
 Side 2  free  transition at x/c =  0.4690   67

  15   rms: 0.1445E+00   max: -.6721E+00   D at   70  1   RLX: 0.744
       a = -8.000      CL =  0.0590
      Cm = -0.0298     CD =  0.17562   =>   CDf =  0.00723    CDp =  0.16840

 Side 1  free  transition at x/c =  0.7785   67
 Side 2  free  transition at x/c =  0.4763   66

  16   rms: 0.5793E+00   max: -.4165E+01   T at   67  1   RLX: 0.120
       a = -8.000      CL =  0.1509
      Cm = -0.0445     CD =  0.17967   =>   CDf =  0.00744    CDp =  0.17223

 Side 1  free  transition at x/c =  0.8053   69
 Side 2  free  transition at x/c =  0.4770   65

  17   rms: 0.1485E+00   max: -.9113E+00   T at   69  1   RLX: 0.549
       a = -8.000      CL =  0.2661
      Cm = -0.0742     CD =  0.14733   =>   CDf =  0.00778    CDp =  0.13955

 Side 1  free  transition at x/c =  0.8433   71
 Side 2  free  transition at x/c =  0.4797   65

  18   rms: 0.8344E-01   max: -.3449E+00   D at   65  2
       a = -8.000      CL =  0.2048
      Cm = -0.0778     CD =  0.14606   =>   CDf =  0.00811    CDp =  0.13795

 Side 1  free  transition at x/c =  0.8481   71
 Side 2  free  transition at x/c =  0.5543   68

  19   rms: 0.1299E+01   max: 0.9814E+01   T at   68  2   RLX: 0.100
       a = -8.000      CL =  0.3775
      Cm = -0.0971     CD =  0.11944   =>   CDf =  0.00802    CDp =  0.11143

 Side 1  free  transition at x/c =  0.8476   72
 Side 2  free  transition at x/c =  0.5135   66

  20   rms: 0.6733E-01   max: 0.1275E+01   T at   66  2
       a = -8.000      CL =  0.3246
      Cm = -0.0895     CD =  0.13398   =>   CDf =  0.00812    CDp =  0.12586

 Side 1  free  transition at x/c =  0.8485   72
 Side 2  free  transition at x/c =  0.4986   65

  21   rms: 0.1829E-01   max: -.2881E+00   D at   65  2
       a = -8.000      CL =  0.3374
      Cm = -0.0902     CD =  0.13414   =>   CDf =  0.00814    CDp =  0.12600

 Side 1  free  transition at x/c =  0.8484   72
 Side 2  free  transition at x/c =  0.5005   65

  22   rms: 0.6567E-02   max: -.3974E-01   D at   65  2
       a = -8.000      CL =  0.3437
      Cm = -0.0908     CD =  0.13327   =>   CDf =  0.00813    CDp =  0.12514

 Side 1  free  transition at x/c =  0.8484   72
 Side 2  free  transition at x/c =  0.5001   65

  23   rms: 0.4908E-03   max: -.4534E-02   D at   65  2
       a = -8.000      CL =  0.3433
      Cm = -0.0908     CD =  0.13320   =>   CDf =  0.00812    CDp =  0.12508

 Side 1  free  transition at x/c =  0.8485   72
 Side 2  free  transition at x/c =  0.5002   65

  24   rms: 0.1557E-04   max: -.1398E-03   D at  105  2
       a = -8.000      CL =  0.3433
      Cm = -0.0908     CD =  0.13321   =>   CDf =  0.00812    CDp =  0.12509
 plradd ia,ip,cpol            7          77  0.24074993    

 Point added to stored polar  1
 Save file unspecified or not available
 Dump file unspecified or not available

.OPERva   c>  
.OPERva   c>  
.OPERva   c>   Calculating wake trajectory ...
 Calculating source influence matrix ...

 Solving BL system ...

 Side 1  free  transition at x/c =  0.8485   72
 Side 2  free  transition at x/c =  0.5002   65

   1   rms: 0.1878E+00   max: 0.3079E+01   T at   65  2   RLX: 0.302
       a = -9.000      CL =  0.3543
      Cm = -0.0907     CD =  0.13285   =>   CDf =  0.00811    CDp =  0.12475

 Side 1  free  transition at x/c =  0.8547   72
 Side 2  free  transition at x/c =  0.4818   65
 idif Ue xi dudx           2  0.15058015      1.17065907E-02   12.862853    
 Uenew xinew           3  9.13490802E-02  7.10177422E-03

   2   rms: 0.1767E+00   max: 0.8467E+00   T at   65  2
       a = -9.000      CL =  0.1675
      Cm = -0.0737     CD =  0.16450   =>   CDf =  0.00842    CDp =  0.15607

 Side 1  free  transition at x/c =  0.8845   71
 Side 2  free  transition at x/c =  0.4803   66

   3   rms: 0.1898E+00   max: 0.1177E+01   D at   67  2
       a = -9.000      CL =  0.3674
      Cm = -0.0887     CD =  0.16456   =>   CDf =  0.00798    CDp =  0.15658

 Side 1  free  transition at x/c =  0.8729   72
 Side 2  free  transition at x/c =  0.4563   64
 idif Ue xi dudx           1  7.73965418E-02  5.99694252E-03   12.906000    
 Uenew xinew           2  1.77206174E-02  1.37305260E-03

   4   rms: 0.1819E+00   max: 0.1192E+01   T at   65  2   RLX: 0.762
       a = -9.000      CL =  0.2073
      Cm = -0.0798     CD =  0.15873   =>   CDf =  0.00813    CDp =  0.15059

 Side 1  free  transition at x/c =  0.8774   71
 Side 2  free  transition at x/c =  0.4537   65

   5   rms: 0.5802E-01   max: -.4491E+00   D at   65  2
       a = -9.000      CL =  0.1900
      Cm = -0.0746     CD =  0.15337   =>   CDf =  0.00808    CDp =  0.14529

 Side 1  free  transition at x/c =  0.8782   71
 Side 2  free  transition at x/c =  0.4954   67

   6   rms: 0.1654E+00   max: 0.1874E+01   D at   67  2   RLX: 0.800
       a = -9.000      CL =  0.2521
      Cm = -0.0826     CD =  0.15326   =>   CDf =  0.00789    CDp =  0.14538

 Side 1  free  transition at x/c =  0.8774   72
 Side 2  free  transition at x/c =  0.4723   65

   7   rms: 0.4646E-01   max: -.3259E+00   D at   65  2
       a = -9.000      CL =  0.2570
      Cm = -0.0804     CD =  0.14618   =>   CDf =  0.00802    CDp =  0.13817

 Side 1  free  transition at x/c =  0.8784   72
 Side 2  free  transition at x/c =  0.4710   65

   8   rms: 0.8986E-02   max: -.1042E+00   D at   65  2
       a = -9.000      CL =  0.2453
      Cm = -0.0789     CD =  0.14459   =>   CDf =  0.00802    CDp =  0.13656

 Side 1  free  transition at x/c =  0.8793   72
 Side 2  free  transition at x/c =  0.4724   65

   9   rms: 0.3989E-03   max: -.1886E-02   D at   99  2
       a = -9.000      CL =  0.2449
      Cm = -0.0788     CD =  0.14465   =>   CDf =  0.00803    CDp =  0.13661

 Side 1  free  transition at x/c =  0.8794   72
 Side 2  free  transition at x/c =  0.4724   65

  10   rms: 0.1275E-04   max: 0.6856E-04   D at   87  2
       a = -9.000      CL =  0.2449
      Cm = -0.0788     CD =  0.14465   =>   CDf =  0.00803    CDp =  0.13662
 plradd ia,ip,cpol            8          76  0.25474638    

 Point added to stored polar  1
 Save file unspecified or not available
 Dump file unspecified or not available

.OPERva   c>  
.OPERva   c>  
.OPERva   c>   Calculating wake trajectory ...
 Calculating source influence matrix ...

 Solving BL system ...

 Side 1  free  transition at x/c =  0.8794   72
 Side 2  free  transition at x/c =  0.4724   65
 idif Ue xi dudx           1  8.28543976E-02  6.42633438E-03   12.892948    
 Uenew xinew           2  2.32388228E-02  1.80244446E-03

   1   rms: 0.1327E+00   max: 0.1953E+01   T at   65  2   RLX: 0.323
       a =-10.000      CL =  0.2075
      Cm = -0.0725     CD =  0.14866   =>   CDf =  0.00819    CDp =  0.14047

 Side 1  free  transition at x/c =  0.8861   71
 Side 2  free  transition at x/c =  0.4589   66
 idif Ue xi dudx           1  7.91107565E-02  6.18374348E-03   12.793344    
 Uenew xinew           2  1.96781773E-02  1.53815746E-03

   2   rms: 0.1330E+00   max: -.7134E+00   T at   71  1   RLX: 0.701
       a =-10.000      CL =  0.1217
      Cm = -0.0667     CD =  0.16601   =>   CDf =  0.00816    CDp =  0.15785

 Side 1  free  transition at x/c =  0.9192   71
 Side 2  free  transition at x/c =  0.4577   66

   3   rms: 0.1195E+00   max: -.4698E+00   T at   67  2
       a =-10.000      CL =  0.2075
      Cm = -0.0684     CD =  0.15263   =>   CDf =  0.00796    CDp =  0.14467

 Side 1  free  transition at x/c =  0.9025   72
 Side 2  free  transition at x/c =  0.4353   64
 idif Ue xi dudx           1  9.27974135E-02  7.27367401E-03   12.757983    
 Uenew xinew           2  3.35291028E-02  2.62808800E-03

   4   rms: 0.1692E+00   max: 0.1335E+01   T at   65  2   RLX: 0.786
       a =-10.000      CL =  0.1014
      Cm = -0.0607     CD =  0.17549   =>   CDf =  0.00810    CDp =  0.16740

 Side 1  free  transition at x/c =  0.9084   71
 Side 2  free  transition at x/c =  0.4343   65
 idif Ue xi dudx           1  8.81405696E-02  6.87968731E-03   12.811711    
 Uenew xinew           2  2.83034611E-02  2.20918655E-03

   5   rms: 0.9525E-01   max: -.3216E+00   D at   65  2
       a =-10.000      CL = -0.0219
      Cm = -0.0504     CD =  0.17138   =>   CDf =  0.00819    CDp =  0.16319

 Side 1  free  transition at x/c =  0.9134   70
 Side 2  free  transition at x/c =  0.4947   69

   6   rms: 0.3564E+00   max: 0.3339E+01   D at   69  2   RLX: 0.449
       a =-10.000      CL =  0.0441
      Cm = -0.0628     CD =  0.15970   =>   CDf =  0.00800    CDp =  0.15170

 Side 1  free  transition at x/c =  0.9058   70
 Side 2  free  transition at x/c =  0.4626   68

   7   rms: 0.1695E+00   max: 0.1672E+01   T at   68  2   RLX: 0.897
       a =-10.000      CL =  0.1130
      Cm = -0.0630     CD =  0.17139   =>   CDf =  0.00781    CDp =  0.16359

 Side 1  free  transition at x/c =  0.9070   71
 Side 2  free  transition at x/c =  0.4510   66

   8   rms: 0.8525E-01   max: 0.5019E+00   D at   68  2
       a =-10.000      CL =  0.1788
      Cm = -0.0672     CD =  0.16172   =>   CDf =  0.00781    CDp =  0.15391

 Side 1  free  transition at x/c =  0.9073   72
 Side 2  free  transition at x/c =  0.4402   65
 idif Ue xi dudx           1  7.37073943E-02  5.79226017E-03   12.725153    
 Uenew xinew           2  1.45916045E-02  1.14667416E-03

   9   rms: 0.3826E-01   max: -.3139E+00   D at   65  2
       a =-10.000      CL =  0.1405
      Cm = -0.0631     CD =  0.15579   =>   CDf =  0.00810    CDp =  0.14769

 Side 1  free  transition at x/c =  0.9102   71
 Side 2  free  transition at x/c =  0.4449   66

  10   rms: 0.8886E-02   max: -.6871E-01   D at   66  2
       a =-10.000      CL =  0.1340
      Cm = -0.0627     CD =  0.15671   =>   CDf =  0.00796    CDp =  0.14876

 Side 1  free  transition at x/c =  0.9106   71
 Side 2  free  transition at x/c =  0.4462   66

  11   rms: 0.8085E-03   max: -.6481E-02   D at  106  2
       a =-10.000      CL =  0.1335
      Cm = -0.0626     CD =  0.15705   =>   CDf =  0.00796    CDp =  0.14909

 Side 1  free  transition at x/c =  0.9104   71
 Side 2  free  transition at x/c =  0.4463   66

  12   rms: 0.2630E-04   max: 0.1827E-03   T at   71  1
       a =-10.000      CL =  0.1335
      Cm = -0.0626     CD =  0.15705   =>   CDf =  0.00796    CDp =  0.14910
 plradd ia,ip,cpol            9          74  0.26941079    

 Point added to stored polar  1
 Save file unspecified or not available
 Dump file unspecified or not available

.OPERva   c>  
.OPERva   c>  
.OPERva   c>  
        airfoil                    Re           Mach       Ncrit  XtripT  XtripB     file
       ------------------------  ------------  ----------  -----  ------  ------    -------------------
 >  1  NACA 0035                 6.000e4       0.000        9.00   1.000   1.000    

Enter polar output filename   s>  
.OPERva   c>  
 ==============================================================
 Polar  1
  
       XFOIL         Version 6.99
  
 Calculated polar for: NACA 0035                                       
  
 1 1 Reynolds number fixed          Mach number fixed         
  
 xtrf =   1.000 (top)        1.000 (bottom)  
 Mach =   0.000     Re =     0.060 e 6     Ncrit =   9.000
  
   alpha    CL        CD       CDp       CM     Top_Xtr  Bot_Xtr
  ------ -------- --------- --------- -------- -------- --------
  -1.000   0.1671   0.12613   0.11815  -0.0212   0.5943   0.5744
  -3.000   0.5714   0.10690   0.09844  -0.0816   0.6730   0.6372
  -4.000   0.5363   0.11010   0.10170  -0.0866   0.7048   0.6090
  -5.000   0.4977   0.11417   0.10583  -0.0905   0.7389   0.5813
  -6.000   0.4472   0.11947   0.11107  -0.0937   0.7829   0.5561
  -7.000   0.4054   0.12523   0.11699  -0.0949   0.8159   0.5289
  -8.000   0.3433   0.13321   0.12509  -0.0908   0.8485   0.5002
  -9.000   0.2449   0.14465   0.13662  -0.0788   0.8794   0.4724
 -10.000   0.1335   0.15705   0.14910  -0.0626   0.9104   0.4463

.OPERva   c>  
 XFOIL   c>  