
 ===================================================
  XFOIL Version 6.99
  Copyright (C) 2000   Mark Drela, Harold Youngren

  This software comes with ABSOLUTELY NO WARRANTY,
    subject to the GNU General Public License.

  Caveat computor
 ===================================================

 File  xfoil.def  not found

   QUIT    Exit program

  .OPER    Direct operating point(s)
  .MDES    Complex mapping design routine
  .QDES    Surface speed design routine
  .GDES    Geometry design routine

   SAVE f  Write airfoil to labeled coordinate file
   PSAV f  Write airfoil to plain coordinate file
   ISAV f  Write airfoil to ISES coordinate file
   MSAV f  Write airfoil to MSES coordinate file
   REVE    Reverse written-airfoil node ordering

   LOAD f  Read buffer airfoil from coordinate file
   NACA i  Set NACA 4,5-digit airfoil and buffer airfoil
   INTE    Set buffer airfoil by interpolating two airfoils
   NORM    Buffer airfoil normalization toggle
   XYCM rr Change CM reference location, currently  0.25000 0.00000

   BEND    Display structural properties of current airfoil

   PCOP    Set current-airfoil panel nodes directly from buffer airfoil points
   PANE    Set current-airfoil panel nodes ( 160 ) based on curvature
  .PPAR    Show/change paneling

  .PLOP    Plotting options

   WDEF f  Write  current-settings file
   RDEF f  Reread current-settings file
   NAME s  Specify new airfoil name
   NINC    Increment name version number

   Z       Zoom    | (available in all menus)
   U       Unzoom  | 

 XFOIL   c>   Max thickness =     0.120035  at x =   0.300
 Max camber    =     0.000000  at x =   0.013

 Buffer airfoil set using 331 points

 Blunt trailing edge.  Gap =  0.00252

 Paneling parameters used...
   Number of panel nodes       160
   Panel bunching parameter    1.000
   TE/LE panel density ratio   0.150
   Refined-area/LE panel density ratio    0.200
   Top    side refined area x/c limits  1.000 1.000
   Bottom side refined area x/c limits  1.000 1.000

 XFOIL   c>  
 Blunt trailing edge.  Gap =  0.00252

 Paneling parameters used...
   Number of panel nodes       160
   Panel bunching parameter    1.000
   TE/LE panel density ratio   0.150
   Refined-area/LE panel density ratio    0.200
   Top    side refined area x/c limits  1.000 1.000
   Bottom side refined area x/c limits  1.000 1.000

 XFOIL   c>   N    command not recognized.  Type a "?" for list

 XFOIL   c>   2000 command not recognized.  Type a "?" for list

 XFOIL   c>  
 XFOIL   c>  
 XFOIL   c>  
.OPERi   c>   Current iteration limit:          10

Enter new iteration limit   i>  
.OPERi   c>  
 XFOIL   c>  
 XFOIL   c>  
 XFOIL   c>  
.OPERi   c>  
.OPERi   c>  
.OPERi   c>  
 M  =    0.0000
 Re =     60000

.OPERv   c>  
 Polar  1 newly created for accumulation
 Airfoil archived with polar: NACA 0012                                       

Enter  polar save filename  OR  <return> for no file   s>  
 Polar save file will NOT be written

Enter  polar dump filename  OR  <return> for no file   s>  
 Polar dump file will NOT be written

 Polar accumulation enabled

.OPERva   c>   Calculating unit vorticity distributions ...
 Calculating wake trajectory ...
 Calculating source influence matrix ...

 Solving BL system ...

 Initializing BL ...
    side            1  ...
 MRCHUE: Inverse mode at  60     Hk =   3.983
 MRCHUE: Inverse mode at  61     Hk =   4.177
 MRCHUE: Inverse mode at  62     Hk =   4.368
 MRCHUE: Inverse mode at  63     Hk =   4.556
 MRCHUE: Inverse mode at  64     Hk =   4.741
 MRCHUE: Inverse mode at  65     Hk =   4.924
 MRCHUE: Inverse mode at  66     Hk =   5.104
 MRCHUE: Inverse mode at  67     Hk =   5.282
 MRCHUE: Inverse mode at  68     Hk =   5.458
 MRCHUE: Inverse mode at  69     Hk =   5.632
 MRCHUE: Inverse mode at  70     Hk =   5.804
 MRCHUE: Inverse mode at  71     Hk =   5.973
 MRCHUE: Inverse mode at  72     Hk =   6.140
 MRCHUE: Inverse mode at  73     Hk =   6.304
 MRCHUE: Inverse mode at  74     Hk =   6.464
 MRCHUE: Inverse mode at  75     Hk =   6.615
 MRCHUE: Inverse mode at  76     Hk =   6.755
 MRCHUE: Inverse mode at  77     Hk =   6.879
 MRCHUE: Inverse mode at  78     Hk =   6.985
 MRCHUE: Inverse mode at  79     Hk =   7.046
    side            2  ...
 MRCHUE: Inverse mode at  53     Hk =   3.800
 MRCHUE: Inverse mode at  54     Hk =   4.025
 MRCHUE: Inverse mode at  55     Hk =   4.246
 MRCHUE: Inverse mode at  56     Hk =   4.462
 MRCHUE: Inverse mode at  57     Hk =   4.674
 MRCHUE: Inverse mode at  58     Hk =   4.883
 MRCHUE: Inverse mode at  59     Hk =   5.089
 MRCHUE: Inverse mode at  60     Hk =   5.292
 MRCHUE: Inverse mode at  61     Hk =   5.492
 MRCHUE: Inverse mode at  62     Hk =   5.690
 MRCHUE: Inverse mode at  63     Hk =   5.885
 MRCHUE: Inverse mode at  64     Hk =   6.077
 MRCHUE: Inverse mode at  65     Hk =   6.268
 MRCHUE: Inverse mode at  66     Hk =   6.457
 MRCHUE: Inverse mode at  67     Hk =   6.644
 MRCHUE: Inverse mode at  68     Hk =   6.829
 MRCHUE: Inverse mode at  69     Hk =   7.012
 MRCHUE: Inverse mode at  70     Hk =   7.194
 MRCHUE: Inverse mode at  71     Hk =   7.374
 MRCHUE: Inverse mode at  72     Hk =   7.553
 MRCHUE: Inverse mode at  73     Hk =   7.730
 MRCHUE: Inverse mode at  74     Hk =   7.905
 MRCHUE: Inverse mode at  75     Hk =   8.079
 MRCHUE: Inverse mode at  76     Hk =   8.251
 MRCHUE: Inverse mode at  77     Hk =   8.420
 MRCHUE: Inverse mode at  78     Hk =   8.584
 MRCHUE: Inverse mode at  79     Hk =   8.741
 MRCHUE: Inverse mode at  80     Hk =   8.886
 MRCHUE: Inverse mode at  81     Hk =   9.014
 MRCHUE: Inverse mode at  82     Hk =   9.124
 MRCHUE: Inverse mode at  83     Hk =   9.187
 MRCHUE: Inverse mode at  85     Hk =   5.429
 MRCHUE: Inverse mode at  86     Hk =   4.285
 MRCHUE: Inverse mode at  87     Hk =   3.653
 MRCHUE: Inverse mode at  88     Hk =   3.247
 MRCHUE: Inverse mode at  89     Hk =   2.961
 MRCHUE: Convergence failed at  90  side 2    Res =  0.1462E-01

 MRCHDU: Convergence failed at  90  side 2    Res =  0.1455E-01
 Side 1 forced transition at x/c =  1.0000   79
 Side 2 forced transition at x/c =  1.0000   83

   1   rms: 0.4364E+00   max: 0.3419E+01   D at   90  2   RLX: 0.439
       a = -1.000      CL = -0.0569
      Cm =  0.0013     CD =  0.00881   =>   CDf =  0.00877    CDp =  0.00005

 Side 1 forced transition at x/c =  1.0000   80
 Side 2 forced transition at x/c =  1.0000   82

   2   rms: 0.2026E+00   max: 0.1347E+01   D at   90  2
       a = -1.000      CL =  0.0261
      Cm = -0.0156     CD =  0.01593   =>   CDf =  0.00915    CDp =  0.00678

 MRCHDU: Convergence failed at  89  side 2    Res =  0.1695E+01
 MRCHDU: Convergence failed at  90  side 2    Res =  0.6735E+01
 MRCHDU: Convergence failed at  91  side 2    Res =  0.3674E+01
 Side 1 forced transition at x/c =  1.0000   81
 Side 2 forced transition at x/c =  1.0000   81

   3   rms: 0.4928E-01   max: 0.3596E+00   C at   81  1
       a = -1.000      CL =  0.0413
      Cm = -0.0171     CD =  0.01946   =>   CDf =  0.00924    CDp =  0.01023

 Side 1 forced transition at x/c =  1.0000   81
 Side 2  free  transition at x/c =  0.9851   80
 idif Ue xi dudx           1  0.16243501      1.99329853E-03   81.490555    
 Uenew xinew           2  1.41539266E-02  1.73687935E-04

   4   rms: 0.4482E-01   max: -.2947E+00   D at   92  2
       a = -1.000      CL =  0.0056
      Cm = -0.0106     CD =  0.02053   =>   CDf =  0.00907    CDp =  0.01146

 Side 1 forced transition at x/c =  1.0000   80
 Side 2  free  transition at x/c =  0.9913   81

   5   rms: 0.5939E-02   max: 0.5834E-01   C at   80  1
       a = -1.000      CL =  0.0022
      Cm = -0.0100     CD =  0.02070   =>   CDf =  0.00898    CDp =  0.01172

 Side 1 forced transition at x/c =  1.0000   80
 Side 2  free  transition at x/c =  0.9909   81

   6   rms: 0.2151E-03   max: 0.1904E-02   C at   80  1
       a = -1.000      CL =  0.0021
      Cm = -0.0100     CD =  0.02069   =>   CDf =  0.00896    CDp =  0.01174

 Side 1 forced transition at x/c =  1.0000   80
 Side 2  free  transition at x/c =  0.9909   81

   7   rms: 0.4124E-05   max: -.4312E-04   D at    4  2
       a = -1.000      CL =  0.0021
      Cm = -0.0100     CD =  0.02069   =>   CDf =  0.00895    CDp =  0.01174
 plradd ia,ip,cpol            1          79  8.39933008E-02

 Point added to stored polar  1
 Save file unspecified or not available
 Dump file unspecified or not available

.OPERva   c>  
.OPERva   c>  
.OPERva   c>   Calculating wake trajectory ...
 Calculating source influence matrix ...

 Solving BL system ...

 Side 1 forced transition at x/c =  1.0000   80
 Side 2  free  transition at x/c =  0.9909   81
 idif Ue xi dudx           1  0.23953062      2.96795368E-03   80.705650    
 Uenew xinew           2  8.80501419E-02  1.09100342E-03

   1   rms: 0.3166E+00   max: 0.1640E+01   T at   81  2   RLX: 0.536
       a = -2.000      CL = -0.1676
      Cm =  0.0143     CD =  0.02225   =>   CDf =  0.00895    CDp =  0.01330

 Side 1 forced transition at x/c =  1.0000   79
 Side 2  free  transition at x/c =  0.9397   78

   2   rms: 0.1116E+00   max: 0.1102E+01   T at   78  2   RLX: 0.570
       a = -2.000      CL = -0.1893
      Cm =  0.0128     CD =  0.02156   =>   CDf =  0.00874    CDp =  0.01282

 Side 1 forced transition at x/c =  1.0000   79
 Side 2  free  transition at x/c =  0.9019   76
 idif Ue xi dudx           1  0.24673624      3.20088863E-03   77.083672    
 Uenew xinew           2  9.60995033E-02  1.24669075E-03

   3   rms: 0.1038E+00   max: -.4773E+00   D at   81  2
       a = -2.000      CL = -0.2823
      Cm =  0.0246     CD =  0.02196   =>   CDf =  0.00863    CDp =  0.01333

 Side 1 forced transition at x/c =  1.0000   78
 Side 2  free  transition at x/c =  0.8879   76

   4   rms: 0.6425E-01   max: -.2747E+00   D at   82  2
       a = -2.000      CL = -0.3427
      Cm =  0.0343     CD =  0.02074   =>   CDf =  0.00847    CDp =  0.01227

 Side 1 forced transition at x/c =  1.0000   78
 Side 2  free  transition at x/c =  0.9019   77

   5   rms: 0.4179E-01   max: 0.2280E+00   D at   81  2
       a = -2.000      CL = -0.3197
      Cm =  0.0306     CD =  0.02123   =>   CDf =  0.00834    CDp =  0.01289

 Side 1 forced transition at x/c =  1.0000   78
 Side 2  free  transition at x/c =  0.8935   77

   6   rms: 0.1293E-02   max: -.9096E-02   D at   77  2
       a = -2.000      CL = -0.3188
      Cm =  0.0305     CD =  0.02121   =>   CDf =  0.00837    CDp =  0.01284

 Side 1 forced transition at x/c =  1.0000   78
 Side 2  free  transition at x/c =  0.8935   77

   7   rms: 0.1678E-04   max: 0.1397E-03   D at   87  2
       a = -2.000      CL = -0.3188
      Cm =  0.0305     CD =  0.02121   =>   CDf =  0.00838    CDp =  0.01283
 plradd ia,ip,cpol            2          77  2.83958782E-02

 Point added to stored polar  1
 Save file unspecified or not available
 Dump file unspecified or not available

.OPERva   c>  
.OPERva   c>  
.OPERva   c>   Calculating wake trajectory ...
 Calculating source influence matrix ...

 Solving BL system ...

 Side 1 forced transition at x/c =  1.0000   78
 Side 2  free  transition at x/c =  0.8935   77
 idif Ue xi dudx           2  0.33228078      4.56345081E-03   72.813492    
 Uenew xinew           3  0.18352218      2.52044201E-03

   1   rms: 0.3974E+00   max: -.1176E+01   D at   84  2   RLX: 0.425
       a = -3.000      CL = -0.4841
      Cm =  0.0491     CD =  0.01938   =>   CDf =  0.00824    CDp =  0.01114

 MRCHDU: Convergence failed at  82  side 2    Res =  0.1097E+01
 MRCHDU: Convergence failed at  83  side 2    Res =  0.1587E+01
 MRCHDU: Convergence failed at  84  side 2    Res =  0.2448E+01
 MRCHDU: Convergence failed at  85  side 2    Res =  0.3794E+01
 MRCHDU: Convergence failed at  86  side 2    Res =  0.5739E+01
 Side 1 forced transition at x/c =  1.0000   76
 Side 2  free  transition at x/c =  0.8516   76

   2   rms: 0.1444E+00   max: 0.1012E+01   T at   76  2
       a = -3.000      CL = -0.4165
      Cm =  0.0249     CD =  0.02000   =>   CDf =  0.00796    CDp =  0.01204

 MRCHDU: Convergence failed at  76  side 2    Res =  0.3059E+01
 MRCHDU: Convergence failed at  77  side 2    Res =  0.1587E+02
 MRCHDU: Convergence failed at  78  side 2    Res =  0.3035E+02
 MRCHDU: Convergence failed at  79  side 2    Res =  0.1150E+02
 MRCHDU: Convergence failed at  80  side 2    Res =  0.1027E+02
 MRCHDU: Convergence failed at  81  side 2    Res =  0.9539E+01
 MRCHDU: Convergence failed at  82  side 2    Res =  0.1009E+02
 MRCHDU: Convergence failed at  83  side 2    Res =  0.1143E+02
 MRCHDU: Convergence failed at  84  side 2    Res =  0.1365E+02
 MRCHDU: Convergence failed at  85  side 2    Res =  0.1737E+02
 MRCHDU: Convergence failed at  86  side 2    Res =  0.3163E+02
 Side 1 forced transition at x/c =  1.0000   76
 Side 2  free  transition at x/c =  0.7584   71

   3   rms: 0.1447E+00   max: 0.6624E+00   D at   93  2
       a = -3.000      CL = -0.3311
      Cm =  0.0101     CD =  0.02352   =>   CDf =  0.00823    CDp =  0.01529

 Side 1 forced transition at x/c =  1.0000   77
 Side 2  free  transition at x/c =  0.7651   70
 idif Ue xi dudx           1  0.20726301      3.07226181E-03   67.462677    
 Uenew xinew           2  6.25279322E-02  9.26852226E-04

   4   rms: 0.1277E+00   max: 0.7556E+00   C at   77  1
       a = -3.000      CL = -0.4578
      Cm =  0.0293     CD =  0.01932   =>   CDf =  0.00858    CDp =  0.01074

 Side 1 forced transition at x/c =  1.0000   76
 Side 2  free  transition at x/c =  0.7689   71

   5   rms: 0.1861E-01   max: 0.1106E+00   C at   76  1
       a = -3.000      CL = -0.4617
      Cm =  0.0299     CD =  0.01988   =>   CDf =  0.00821    CDp =  0.01167

 Side 1 forced transition at x/c =  1.0000   76
 Side 2  free  transition at x/c =  0.7595   71

   6   rms: 0.4532E-02   max: -.3441E-01   D at   73  2
       a = -3.000      CL = -0.4626
      Cm =  0.0299     CD =  0.01982   =>   CDf =  0.00816    CDp =  0.01165

 Side 1 forced transition at x/c =  1.0000   76
 Side 2  free  transition at x/c =  0.7608   71

   7   rms: 0.9673E-04   max: -.5716E-03   D at   88  2
       a = -3.000      CL = -0.4627
      Cm =  0.0299     CD =  0.01982   =>   CDf =  0.00815    CDp =  0.01167
 plradd ia,ip,cpol            3          75  1.67430807E-02

 Point added to stored polar  1
 Save file unspecified or not available
 Dump file unspecified or not available

.OPERva   c>  
.OPERva   c>  
.OPERva   c>   Calculating wake trajectory ...
 Calculating source influence matrix ...

 Solving BL system ...

 Side 1 forced transition at x/c =  1.0000   76
 Side 2  free  transition at x/c =  0.7608   71
 idif Ue xi dudx           1  0.17538707      2.84266472E-03   61.698120    
 Uenew xinew           2  3.57011184E-02  5.78641891E-04

   1   rms: 0.2336E+00   max: 0.1273E+01   T at   72  2   RLX: 0.560
       a = -4.000      CL = -0.5265
      Cm =  0.0245     CD =  0.01861   =>   CDf =  0.00806    CDp =  0.01054

 MRCHDU: Convergence failed at  73  side 2    Res =  0.2283E+01
 MRCHDU: Convergence failed at  74  side 2    Res =  0.1176E+02
 MRCHDU: Convergence failed at  75  side 2    Res =  0.2638E+01
 MRCHDU: Convergence failed at  76  side 2    Res =  0.1705E+01
 MRCHDU: Convergence failed at  77  side 2    Res =  0.1497E+01
 MRCHDU: Convergence failed at  78  side 2    Res =  0.1419E+01
 MRCHDU: Convergence failed at  79  side 2    Res =  0.1426E+01
 MRCHDU: Convergence failed at  80  side 2    Res =  0.1503E+01
 MRCHDU: Convergence failed at  81  side 2    Res =  0.1624E+01
 MRCHDU: Convergence failed at  82  side 2    Res =  0.1814E+01
 MRCHDU: Convergence failed at  83  side 2    Res =  0.2114E+01
 MRCHDU: Convergence failed at  84  side 2    Res =  0.2638E+01
 MRCHDU: Convergence failed at  85  side 2    Res =  0.3316E+01
 MRCHDU: Convergence failed at  86  side 2    Res =  0.4369E+01
 MRCHDU: Convergence failed at  87  side 2    Res =  0.6080E+01
 Side 1 forced transition at x/c =  1.0000   75
 Side 2  free  transition at x/c =  0.6948   68

   2   rms: 0.1767E+00   max: 0.7297E+00   D at   95  2
       a = -4.000      CL = -0.4300
      Cm =  0.0014     CD =  0.01967   =>   CDf =  0.00796    CDp =  0.01171

 Side 1 forced transition at x/c =  1.0000   76
 Side 2  free  transition at x/c =  0.6488   64
 idif Ue xi dudx           1  0.22151905      3.71289253E-03   59.662125    
 Uenew xinew           2  8.64426419E-02  1.44886971E-03

   3   rms: 0.1266E+00   max: 0.8562E+00   C at   76  1
       a = -4.000      CL = -0.5335
      Cm =  0.0176     CD =  0.01954   =>   CDf =  0.00866    CDp =  0.01088

 Side 1 forced transition at x/c =  1.0000   75
 Side 2  free  transition at x/c =  0.6155   63

   4   rms: 0.3125E-01   max: -.2612E+00   D at   64  2
       a = -4.000      CL = -0.5408
      Cm =  0.0184     CD =  0.02000   =>   CDf =  0.00853    CDp =  0.01146

 Side 1 forced transition at x/c =  1.0000   75
 Side 2  free  transition at x/c =  0.6109   63

   5   rms: 0.3584E-02   max: -.3035E-01   D at   64  2
       a = -4.000      CL = -0.5420
      Cm =  0.0185     CD =  0.02004   =>   CDf =  0.00852    CDp =  0.01152

 Side 1 forced transition at x/c =  1.0000   75
 Side 2  free  transition at x/c =  0.6112   63

   6   rms: 0.3561E-04   max: 0.1650E-03   D at   68  1
       a = -4.000      CL = -0.5420
      Cm =  0.0185     CD =  0.02004   =>   CDf =  0.00851    CDp =  0.01153
 plradd ia,ip,cpol            4          74  1.11396154E-02

 Point added to stored polar  1
 Save file unspecified or not available
 Dump file unspecified or not available

.OPERva   c>  
.OPERva   c>  
.OPERva   c>   Calculating wake trajectory ...
 Calculating source influence matrix ...

 Solving BL system ...

 Side 1 forced transition at x/c =  1.0000   75
 Side 2  free  transition at x/c =  0.6112   63
 idif Ue xi dudx           1  0.17140278      3.11982632E-03   54.939846    
 Uenew xinew           2  3.94335762E-02  7.17759132E-04

   1   rms: 0.2290E+00   max: 0.1551E+01   T at   64  2   RLX: 0.518
       a = -5.000      CL = -0.5877
      Cm =  0.0129     CD =  0.02004   =>   CDf =  0.00841    CDp =  0.01163

 MRCHDU: Convergence failed at  64  side 2    Res =  0.1725E+01
 MRCHDU: Convergence failed at  65  side 2    Res =  0.5815E+01
 MRCHDU: Convergence failed at  66  side 2    Res =  0.3134E+01
 MRCHDU: Convergence failed at  67  side 2    Res =  0.3894E+01
 MRCHDU: Convergence failed at  68  side 2    Res =  0.5388E+01
 MRCHDU: Convergence failed at  69  side 2    Res =  0.5349E+01
 MRCHDU: Convergence failed at  70  side 2    Res =  0.4263E+01
 MRCHDU: Convergence failed at  71  side 2    Res =  0.3308E+01
 MRCHDU: Convergence failed at  72  side 2    Res =  0.2706E+01
 MRCHDU: Convergence failed at  73  side 2    Res =  0.2362E+01
 MRCHDU: Convergence failed at  74  side 2    Res =  0.2775E+01
 MRCHDU: Convergence failed at  75  side 2    Res =  0.3021E+01
 MRCHDU: Convergence failed at  76  side 2    Res =  0.3297E+01
 MRCHDU: Convergence failed at  77  side 2    Res =  0.3778E+01
 MRCHDU: Convergence failed at  78  side 2    Res =  0.4210E+01
 MRCHDU: Convergence failed at  79  side 2    Res =  0.4836E+01
 MRCHDU: Convergence failed at  80  side 2    Res =  0.5595E+01
 MRCHDU: Convergence failed at  81  side 2    Res =  0.6560E+01
 MRCHDU: Convergence failed at  82  side 2    Res =  0.8080E+01
 MRCHDU: Convergence failed at  83  side 2    Res =  0.1095E+02
 MRCHDU: Convergence failed at  84  side 2    Res =  0.1628E+02
 MRCHDU: Convergence failed at  85  side 2    Res =  0.3230E+02
 MRCHDU: Convergence failed at  86  side 2    Res =  0.2178E+03
 MRCHDU: Convergence failed at  87  side 2    Res =  0.3109E+02
 MRCHDU: Convergence failed at  88  side 2    Res =  0.1646E+02
 Side 1 forced transition at x/c =  1.0000   74
 Side 2  free  transition at x/c =  0.5420   60

   2   rms: 0.2901E+00   max: 0.1204E+01   D at   95  2   RLX: 0.440
       a = -5.000      CL = -0.5560
      Cm =  0.0311     CD =  0.01734   =>   CDf =  0.00730    CDp =  0.01004

 Side 1 forced transition at x/c =  1.0000   75
 Side 2  free  transition at x/c =  0.5442   59
 idif Ue xi dudx           1  0.18908387      3.49867344E-03   54.044449    
 Uenew xinew           2  5.92654794E-02  1.09660625E-03

   3   rms: 0.2138E+00   max: -.9668E+00   D at   65  2   RLX: 0.517
       a = -5.000      CL = -0.5923
      Cm =  0.0169     CD =  0.01773   =>   CDf =  0.00958    CDp =  0.00815

 Side 1 forced transition at x/c =  1.0000   74
 Side 2  free  transition at x/c =  0.5113   58

   4   rms: 0.1185E+00   max: -.7230E+00   D at   67  2   RLX: 0.692
       a = -5.000      CL = -0.6167
      Cm =  0.0119     CD =  0.01959   =>   CDf =  0.00917    CDp =  0.01042

 Side 1 forced transition at x/c =  1.0000   74
 Side 2  free  transition at x/c =  0.4686   55

   5   rms: 0.5929E-01   max: -.4459E+00   D at   67  2
       a = -5.000      CL = -0.6175
      Cm =  0.0086     CD =  0.02114   =>   CDf =  0.00903    CDp =  0.01212

 Side 1 forced transition at x/c =  1.0000   74
 Side 2  free  transition at x/c =  0.4390   53

   6   rms: 0.2702E-01   max: -.2561E+00   D at   54  2
       a = -5.000      CL = -0.6183
      Cm =  0.0085     CD =  0.02159   =>   CDf =  0.00929    CDp =  0.01230

 Side 1 forced transition at x/c =  1.0000   74
 Side 2  free  transition at x/c =  0.4454   54

   7   rms: 0.9193E-02   max: 0.1040E+00   D at   55  2
       a = -5.000      CL = -0.6173
      Cm =  0.0085     CD =  0.02160   =>   CDf =  0.00921    CDp =  0.01239

 Side 1 forced transition at x/c =  1.0000   74
 Side 2  free  transition at x/c =  0.4430   54

   8   rms: 0.7596E-03   max: 0.7939E-02   D at   55  2
       a = -5.000      CL = -0.6171
      Cm =  0.0085     CD =  0.02160   =>   CDf =  0.00923    CDp =  0.01236

 Side 1 forced transition at x/c =  1.0000   74
 Side 2  free  transition at x/c =  0.4428   54

   9   rms: 0.6056E-05   max: -.2123E-04   T at   54  2
       a = -5.000      CL = -0.6171
      Cm =  0.0085     CD =  0.02160   =>   CDf =  0.00924    CDp =  0.01236
 plradd ia,ip,cpol            5          73  8.83410871E-03

 Point added to stored polar  1
 Save file unspecified or not available
 Dump file unspecified or not available

.OPERva   c>  
.OPERva   c>  
.OPERva   c>   Calculating wake trajectory ...
 Calculating source influence matrix ...

 Solving BL system ...

 Side 1 forced transition at x/c =  1.0000   74
 Side 2  free  transition at x/c =  0.4428   54
 idif Ue xi dudx           1  0.15427136      3.14962864E-03   48.980812    
 Uenew xinew           2  2.87277214E-02  5.86509705E-04

   1   rms: 0.2733E+00   max: 0.2076E+01   T at   54  2   RLX: 0.351
       a = -6.000      CL = -0.6475
      Cm =  0.0054     CD =  0.02221   =>   CDf =  0.00913    CDp =  0.01309

 MRCHDU: Convergence failed at  55  side 2    Res =  0.1910E+01
 MRCHDU: Convergence failed at  56  side 2    Res =  0.5019E+01
 MRCHDU: Convergence failed at  57  side 2    Res =  0.3312E+01
 MRCHDU: Convergence failed at  58  side 2    Res =  0.6066E+01
 MRCHDU: Convergence failed at  59  side 2    Res =  0.6838E+01
 MRCHDU: Convergence failed at  60  side 2    Res =  0.5013E+01
 MRCHDU: Convergence failed at  61  side 2    Res =  0.3502E+01
 MRCHDU: Convergence failed at  62  side 2    Res =  0.2728E+01
 MRCHDU: Convergence failed at  63  side 2    Res =  0.2754E+01
 MRCHDU: Convergence failed at  64  side 2    Res =  0.3028E+01
 MRCHDU: Convergence failed at  65  side 2    Res =  0.3273E+01
 MRCHDU: Convergence failed at  66  side 2    Res =  0.3559E+01
 MRCHDU: Convergence failed at  67  side 2    Res =  0.4004E+01
 MRCHDU: Convergence failed at  68  side 2    Res =  0.4384E+01
 MRCHDU: Convergence failed at  69  side 2    Res =  0.4807E+01
 MRCHDU: Convergence failed at  70  side 2    Res =  0.5346E+01
 MRCHDU: Convergence failed at  71  side 2    Res =  0.6055E+01
 MRCHDU: Convergence failed at  72  side 2    Res =  0.6679E+01
 MRCHDU: Convergence failed at  73  side 2    Res =  0.7646E+01
 MRCHDU: Convergence failed at  74  side 2    Res =  0.8710E+01
 MRCHDU: Convergence failed at  75  side 2    Res =  0.1034E+02
 MRCHDU: Convergence failed at  76  side 2    Res =  0.1226E+02
 MRCHDU: Convergence failed at  77  side 2    Res =  0.1622E+02
 MRCHDU: Convergence failed at  78  side 2    Res =  0.2131E+02
 MRCHDU: Convergence failed at  79  side 2    Res =  0.3384E+02
 MRCHDU: Convergence failed at  80  side 2    Res =  0.8085E+02
 MRCHDU: Convergence failed at  81  side 2    Res =  0.1218E+03
 MRCHDU: Convergence failed at  82  side 2    Res =  0.3845E+02
 MRCHDU: Convergence failed at  83  side 2    Res =  0.2266E+02
 MRCHDU: Convergence failed at  84  side 2    Res =  0.1532E+02
 MRCHDU: Convergence failed at  85  side 2    Res =  0.1173E+02
 MRCHDU: Convergence failed at  86  side 2    Res =  0.9512E+01
 MRCHDU: Convergence failed at  87  side 2    Res =  0.8671E+01
 MRCHDU: Convergence failed at  88  side 2    Res =  0.9623E+01
 MRCHDU: Convergence failed at  89  side 2    Res =  0.9934E+01
 Side 1 forced transition at x/c =  1.0000   73
 Side 2  free  transition at x/c =  0.3962   52

   2   rms: 0.3822E+00   max: 0.1564E+01   D at   96  2   RLX: 0.324
       a = -6.000      CL = -0.7346
      Cm =  0.0738     CD =  0.01557   =>   CDf =  0.00686    CDp =  0.00871

 Side 1 forced transition at x/c =  1.0000   74
 Side 2  free  transition at x/c =  0.3958   51
 idif Ue xi dudx           1  0.18590027      3.96442413E-03   46.892124    
 Uenew xinew           2  6.57101795E-02  1.40130520E-03

   3   rms: 0.3155E+00   max: 0.2099E+01   D at    2  1   RLX: 0.399
       a = -6.000      CL = -0.7260
      Cm =  0.0421     CD =  0.01684   =>   CDf =  0.01122    CDp =  0.00562

 MRCHDU: Convergence failed at  57  side 2    Res =  0.1404E+01
 MRCHDU: Convergence failed at  58  side 2    Res =  0.1232E+01
 Side 1 forced transition at x/c =  1.0000   73
 Side 2  free  transition at x/c =  0.3582   50

   4   rms: 0.1967E+00   max: 0.1133E+01   T at   50  2   RLX: 0.458
       a = -6.000      CL = -0.7266
      Cm =  0.0250     CD =  0.01953   =>   CDf =  0.01038    CDp =  0.00915

 Side 1 forced transition at x/c =  1.0000   73
 Side 2  free  transition at x/c =  0.3263   48

   5   rms: 0.1222E+00   max: -.8289E+00   D at   56  2   RLX: 0.603
       a = -6.000      CL = -0.7109
      Cm =  0.0104     CD =  0.02224   =>   CDf =  0.01011    CDp =  0.01213

 Side 1 forced transition at x/c =  1.0000   73
 Side 2  free  transition at x/c =  0.3043   46

   6   rms: 0.6022E-01   max: -.4174E+00   D at   56  2
       a = -6.000      CL = -0.6897
      Cm = -0.0000     CD =  0.02453   =>   CDf =  0.00995    CDp =  0.01458

 Side 1 forced transition at x/c =  1.0000   73
 Side 2  free  transition at x/c =  0.2806   45

   7   rms: 0.3158E-01   max: -.2564E+00   D at   45  2
       a = -6.000      CL = -0.6897
      Cm =  0.0001     CD =  0.02492   =>   CDf =  0.01017    CDp =  0.01475

 Side 1 forced transition at x/c =  1.0000   73
 Side 2  free  transition at x/c =  0.2849   45

   8   rms: 0.3486E-02   max: 0.3392E-01   D at   47  2
       a = -6.000      CL = -0.6892
      Cm =  0.0001     CD =  0.02500   =>   CDf =  0.01005    CDp =  0.01494

 Side 1 forced transition at x/c =  1.0000   73
 Side 2  free  transition at x/c =  0.2842   45

   9   rms: 0.6806E-04   max: -.5417E-03   T at   45  2
       a = -6.000      CL = -0.6891
      Cm =  0.0001     CD =  0.02499   =>   CDf =  0.01007    CDp =  0.01492
 plradd ia,ip,cpol            6          72  6.81960769E-03

 Point added to stored polar  1
 Save file unspecified or not available
 Dump file unspecified or not available

.OPERva   c>  
.OPERva   c>  
.OPERva   c>   Calculating wake trajectory ...
 Calculating source influence matrix ...

 Solving BL system ...

 Side 1 forced transition at x/c =  1.0000   73
 Side 2  free  transition at x/c =  0.2842   45
 idif Ue xi dudx           1  0.18822986      4.46408987E-03   42.165337    
 Uenew xinew           2  7.22333193E-02  1.71309710E-03

   1   rms: 0.2266E+00   max: 0.2228E+01   T at   45  2   RLX: 0.661
       a = -7.000      CL = -0.7395
      Cm = -0.0048     CD =  0.02758   =>   CDf =  0.00994    CDp =  0.01764

 MRCHDU: Convergence failed at  46  side 2    Res =  0.4476E+02
 MRCHDU: Convergence failed at  47  side 2    Res =  0.1515E+02
 MRCHDU: Convergence failed at  48  side 2    Res =  0.4529E+02
 MRCHDU: Convergence failed at  49  side 2    Res =  0.6108E+03
 MRCHDU: Convergence failed at  50  side 2    Res =  0.1031E+03
 MRCHDU: Convergence failed at  51  side 2    Res =  0.1507E+02
 MRCHDU: Convergence failed at  52  side 2    Res =  0.6248E+01
 MRCHDU: Convergence failed at  53  side 2    Res =  0.4172E+01
 MRCHDU: Convergence failed at  54  side 2    Res =  0.6025E+01
 MRCHDU: Convergence failed at  55  side 2    Res =  0.7173E+01
 MRCHDU: Convergence failed at  56  side 2    Res =  0.8568E+01
 MRCHDU: Convergence failed at  57  side 2    Res =  0.9679E+01
 MRCHDU: Convergence failed at  58  side 2    Res =  0.1138E+02
 MRCHDU: Convergence failed at  59  side 2    Res =  0.1348E+02
 MRCHDU: Convergence failed at  60  side 2    Res =  0.1718E+02
 MRCHDU: Convergence failed at  61  side 2    Res =  0.2054E+02
 MRCHDU: Convergence failed at  62  side 2    Res =  0.2573E+02
 MRCHDU: Convergence failed at  63  side 2    Res =  0.3394E+02
 MRCHDU: Convergence failed at  64  side 2    Res =  0.5076E+02
 MRCHDU: Convergence failed at  65  side 2    Res =  0.9221E+02
 MRCHDU: Convergence failed at  66  side 2    Res =  0.2798E+03
 MRCHDU: Convergence failed at  67  side 2    Res =  0.2989E+03
 MRCHDU: Convergence failed at  68  side 2    Res =  0.1165E+03
 MRCHDU: Convergence failed at  69  side 2    Res =  0.7374E+02
 MRCHDU: Convergence failed at  70  side 2    Res =  0.5200E+02
 MRCHDU: Convergence failed at  71  side 2    Res =  0.3912E+02
 MRCHDU: Convergence failed at  72  side 2    Res =  0.3136E+02
 MRCHDU: Convergence failed at  73  side 2    Res =  0.2615E+02
 MRCHDU: Convergence failed at  74  side 2    Res =  0.2349E+02
 MRCHDU: Convergence failed at  75  side 2    Res =  0.2178E+02
 MRCHDU: Convergence failed at  76  side 2    Res =  0.1912E+02
 MRCHDU: Convergence failed at  77  side 2    Res =  0.1697E+02
 MRCHDU: Convergence failed at  78  side 2    Res =  0.1522E+02
 MRCHDU: Convergence failed at  79  side 2    Res =  0.1378E+02
 MRCHDU: Convergence failed at  80  side 2    Res =  0.1471E+02
 MRCHDU: Convergence failed at  81  side 2    Res =  0.1528E+02
 MRCHDU: Convergence failed at  82  side 2    Res =  0.1368E+02
 MRCHDU: Convergence failed at  83  side 2    Res =  0.1702E+02
 MRCHDU: Convergence failed at  84  side 2    Res =  0.3161E+02
 MRCHDU: Convergence failed at  85  side 2    Res =  0.1564E+02
 MRCHDU: Convergence failed at  86  side 2    Res =  0.2393E+02
 MRCHDU: Convergence failed at  87  side 2    Res =  0.3088E+02
 MRCHDU: Convergence failed at  88  side 2    Res =  0.2843E+02
 MRCHDU: Convergence failed at  89  side 2    Res =  0.3125E+02
 MRCHDU: Convergence failed at  90  side 2    Res =  0.3089E+02
 Side 1 forced transition at x/c =  1.0000   72
 Side 2  free  transition at x/c =  0.2275   42

   2   rms: 0.5971E+00   max: -.3018E+01   T at   42  2   RLX: 0.166
       a = -7.000      CL = -1.0753
      Cm =  0.1708     CD =  0.01727   =>   CDf =  0.00628    CDp =  0.01099

 Side 1 forced transition at x/c =  1.0000   72
 Side 2  free  transition at x/c =  0.2479   44

   3   rms: 0.2645E+00   max: -.4899E+00   D at   91  2   RLX: 0.535
       a = -7.000      CL = -0.7934
      Cm =  0.0316     CD =  0.02998   =>   CDf =  0.00857    CDp =  0.02141

 Side 1 forced transition at x/c =  1.0000   72
 Side 2  free  transition at x/c =  0.2435   43

   4   rms: 0.2706E+00   max: -.1235E+01   D at   67  2   RLX: 0.405
       a = -7.000      CL = -0.7358
      Cm = -0.0020     CD =  0.02695   =>   CDf =  0.00866    CDp =  0.01829

 Side 1 forced transition at x/c =  1.0000   72
 Side 2  free  transition at x/c =  0.2353   43
 idif Ue xi dudx           1  0.12292565      3.19147110E-03   38.516922    
 Uenew xinew           2  8.47375114E-03  2.20000744E-04

   5   rms: 0.3850E+00   max: 0.2149E+01   T at   43  2   RLX: 0.429
       a = -7.000      CL = -0.8078
      Cm = -0.0019     CD =  0.02650   =>   CDf =  0.00908    CDp =  0.01741

 MRCHDU: Convergence failed at  44  side 2    Res =  0.1811E+02
 MRCHDU: Convergence failed at  45  side 2    Res =  0.1295E+03
 MRCHDU: Convergence failed at  46  side 2    Res =  0.1443E+02
 MRCHDU: Convergence failed at  47  side 2    Res =  0.6602E+01
 MRCHDU: Convergence failed at  48  side 2    Res =  0.8453E+01
 MRCHDU: Convergence failed at  49  side 2    Res =  0.8667E+01
 MRCHDU: Convergence failed at  50  side 2    Res =  0.1433E+02
 MRCHDU: Convergence failed at  51  side 2    Res =  0.3369E+02
 MRCHDU: Convergence failed at  52  side 2    Res =  0.1138E+03
 MRCHDU: Convergence failed at  53  side 2    Res =  0.6490E+02
 MRCHDU: Convergence failed at  54  side 2    Res =  0.8817E+01
 MRCHDU: Convergence failed at  55  side 2    Res =  0.9750E+01
 MRCHDU: Convergence failed at  56  side 2    Res =  0.1080E+02
 MRCHDU: Convergence failed at  57  side 2    Res =  0.1272E+02
 MRCHDU: Convergence failed at  58  side 2    Res =  0.1269E+02
 MRCHDU: Convergence failed at  59  side 2    Res =  0.1191E+02
 MRCHDU: Convergence failed at  60  side 2    Res =  0.9505E+01
 MRCHDU: Convergence failed at  61  side 2    Res =  0.6553E+01
 MRCHDU: Convergence failed at  62  side 2    Res =  0.1677E+02
 MRCHDU: Convergence failed at  63  side 2    Res =  0.2853E+02
 MRCHDU: Convergence failed at  64  side 2    Res =  0.3584E+02
 MRCHDU: Convergence failed at  65  side 2    Res =  0.4313E+02
 MRCHDU: Convergence failed at  66  side 2    Res =  0.4863E+02
 MRCHDU: Convergence failed at  67  side 2    Res =  0.5225E+02
 MRCHDU: Convergence failed at  68  side 2    Res =  0.9737E+02
 MRCHDU: Convergence failed at  69  side 2    Res =  0.3838E+02
 MRCHDU: Convergence failed at  70  side 2    Res =  0.3587E+02
 MRCHDU: Convergence failed at  71  side 2    Res =  0.2689E+02
 MRCHDU: Convergence failed at  72  side 2    Res =  0.2781E+02
 MRCHDU: Convergence failed at  73  side 2    Res =  0.4234E+02
 MRCHDU: Convergence failed at  74  side 2    Res =  0.1070E+03
 MRCHDU: Convergence failed at  75  side 2    Res =  0.1736E+02
 MRCHDU: Convergence failed at  76  side 2    Res =  0.1680E+02
 MRCHDU: Convergence failed at  77  side 2    Res =  0.9216E+01
 MRCHDU: Convergence failed at  78  side 2    Res =  0.3025E+02
 MRCHDU: Convergence failed at  79  side 2    Res =  0.3402E+02
 MRCHDU: Convergence failed at  80  side 2    Res =  0.1520E+02
 MRCHDU: Convergence failed at  81  side 2    Res =  0.2301E+02
 MRCHDU: Convergence failed at  82  side 2    Res =  0.2862E+02
 MRCHDU: Convergence failed at  83  side 2    Res =  0.1926E+02
 MRCHDU: Convergence failed at  84  side 2    Res =  0.4884E+02
 MRCHDU: Convergence failed at  85  side 2    Res =  0.5371E+02
 MRCHDU: Convergence failed at  86  side 2    Res =  0.6212E+02
 MRCHDU: Convergence failed at  87  side 2    Res =  0.3909E+02
 MRCHDU: Convergence failed at  88  side 2    Res =  0.1998E+03
 MRCHDU: Convergence failed at  89  side 2    Res =  0.1672E+02
 MRCHDU: Convergence failed at  90  side 2    Res =  0.1566E+03
 MRCHDU: Convergence failed at  91  side 2    Res =  0.1885E+02
 Side 1 forced transition at x/c =  1.0000   71
 Side 2  free  transition at x/c =  0.2034   42

   6   rms: 0.8473E+00   max: 0.3880E+01   D at   94  2   RLX: 0.129
       a = -7.000      CL = -1.3320
      Cm =  0.2479     CD =  0.01300   =>   CDf =  0.00623    CDp =  0.00677

 Side 1 forced transition at x/c =  1.0000   72
 Side 2  free  transition at x/c =  0.2136   42

   7   rms: 0.3230E+00   max: -.5593E+00   D at   91  2   RLX: 0.581
       a = -7.000      CL = -0.8565
      Cm =  0.0466     CD =  0.03548   =>   CDf =  0.00801    CDp =  0.02747

 Side 1 forced transition at x/c =  1.0000   72
 Side 2  free  transition at x/c =  0.2182   42

   8   rms: 0.2931E+00   max: -.1159E+01   D at   62  2   RLX: 0.431
       a = -7.000      CL = -0.7418
      Cm =  0.0026     CD =  0.03162   =>   CDf =  0.00785    CDp =  0.02378

 Side 1 forced transition at x/c =  1.0000   72
 Side 2  free  transition at x/c =  0.2338   43

   9   rms: 0.3400E+00   max: -.1299E+01   D at   64  2   RLX: 0.385
       a = -7.000      CL = -0.7553
      Cm = -0.0082     CD =  0.02773   =>   CDf =  0.00857    CDp =  0.01916

 Side 1 forced transition at x/c =  1.0000   72
 Side 2  free  transition at x/c =  0.2227   42
 idif Ue xi dudx           1  0.15062325      4.03743982E-03   37.306622    
 Uenew xinew           2  3.97677198E-02  1.06596947E-03

  10   rms: 0.4451E+00   max: 0.3988E+01   T at   42  2   RLX: 0.309
       a = -7.000      CL = -0.8556
      Cm =  0.0040     CD =  0.03100   =>   CDf =  0.00921    CDp =  0.02179

 MRCHDU: Convergence failed at  43  side 2    Res =  0.7829E+01
 MRCHDU: Convergence failed at  44  side 2    Res =  0.2771E+02
 MRCHDU: Convergence failed at  45  side 2    Res =  0.9603E+02
 MRCHDU: Convergence failed at  46  side 2    Res =  0.2207E+03
 MRCHDU: Convergence failed at  47  side 2    Res =  0.6161E+02
 MRCHDU: Convergence failed at  48  side 2    Res =  0.3363E+02
 MRCHDU: Convergence failed at  49  side 2    Res =  0.3066E+02
 MRCHDU: Convergence failed at  50  side 2    Res =  0.3180E+02
 MRCHDU: Convergence failed at  51  side 2    Res =  0.3936E+02
 MRCHDU: Convergence failed at  52  side 2    Res =  0.5512E+02
 MRCHDU: Convergence failed at  53  side 2    Res =  0.7156E+02
 MRCHDU: Convergence failed at  54  side 2    Res =  0.1954E+02
 MRCHDU: Convergence failed at  55  side 2    Res =  0.1790E+02
 MRCHDU: Convergence failed at  56  side 2    Res =  0.1099E+02
 MRCHDU: Convergence failed at  57  side 2    Res =  0.1602E+02
 MRCHDU: Convergence failed at  58  side 2    Res =  0.1641E+02
 MRCHDU: Convergence failed at  59  side 2    Res =  0.1693E+02
 MRCHDU: Convergence failed at  60  side 2    Res =  0.1709E+02
 MRCHDU: Convergence failed at  61  side 2    Res =  0.1414E+02
 MRCHDU: Convergence failed at  62  side 2    Res =  0.1501E+02
 MRCHDU: Convergence failed at  63  side 2    Res =  0.1587E+02
 MRCHDU: Convergence failed at  64  side 2    Res =  0.1672E+02
 MRCHDU: Convergence failed at  65  side 2    Res =  0.2075E+02
 MRCHDU: Convergence failed at  66  side 2    Res =  0.2251E+02
 MRCHDU: Convergence failed at  67  side 2    Res =  0.2435E+02
 MRCHDU: Convergence failed at  68  side 2    Res =  0.2630E+02
 MRCHDU: Convergence failed at  69  side 2    Res =  0.2838E+02
 MRCHDU: Convergence failed at  70  side 2    Res =  0.3066E+02
 MRCHDU: Convergence failed at  71  side 2    Res =  0.3248E+02
 MRCHDU: Convergence failed at  72  side 2    Res =  0.2477E+02
 MRCHDU: Convergence failed at  73  side 2    Res =  0.2623E+02
 MRCHDU: Convergence failed at  74  side 2    Res =  0.9976E+01
 MRCHDU: Convergence failed at  75  side 2    Res =  0.1043E+02
 MRCHDU: Convergence failed at  76  side 2    Res =  0.7879E+02
 MRCHDU: Convergence failed at  77  side 2    Res =  0.3843E+02
 MRCHDU: Convergence failed at  78  side 2    Res =  0.4206E+02
 MRCHDU: Convergence failed at  79  side 2    Res =  0.4543E+02
 MRCHDU: Convergence failed at  80  side 2    Res =  0.4926E+02
 MRCHDU: Convergence failed at  81  side 2    Res =  0.5456E+02
 MRCHDU: Convergence failed at  82  side 2    Res =  0.4227E+02
 MRCHDU: Convergence failed at  83  side 2    Res =  0.4617E+02
 MRCHDU: Convergence failed at  84  side 2    Res =  0.5029E+02
 MRCHDU: Convergence failed at  85  side 2    Res =  0.6142E+02
 MRCHDU: Convergence failed at  86  side 2    Res =  0.7530E+02
 MRCHDU: Convergence failed at  87  side 2    Res =  0.3267E+02
 MRCHDU: Convergence failed at  88  side 2    Res =  0.6681E+03
 MRCHDU: Convergence failed at  89  side 2    Res =  0.5408E+02
 MRCHDU: Convergence failed at  90  side 2    Res =  0.3054E+02
 MRCHDU: Convergence failed at  91  side 2    Res =  0.2897E+02
 Side 1 forced transition at x/c =  1.0000   71
 Side 2  free  transition at x/c =  0.1827   41

  11   rms: 0.1102E+01   max: 0.5858E+01   D at   94  2   RLX: 0.092
       a = -7.000      CL = -1.4566
      Cm =  0.2873     CD =  0.01361   =>   CDf =  0.00606    CDp =  0.00755

 MRCHDU: Convergence failed at  79  side 2    Res =  0.2059E+00
 MRCHDU: Convergence failed at  80  side 2    Res =  0.2032E+00
 MRCHDU: Convergence failed at  81  side 2    Res =  0.2010E+00
 MRCHDU: Convergence failed at  82  side 2    Res =  0.1993E+00
 MRCHDU: Convergence failed at  83  side 2    Res =  0.1979E+00
 MRCHDU: Convergence failed at  84  side 2    Res =  0.1966E+00
 MRCHDU: Convergence failed at  85  side 2    Res =  0.1948E+00
 MRCHDU: Convergence failed at  86  side 2    Res =  0.1916E+00
 MRCHDU: Convergence failed at  87  side 2    Res =  0.1853E+00
 MRCHDU: Convergence failed at  88  side 2    Res =  0.1754E+00
 MRCHDU: Convergence failed at  89  side 2    Res =  0.1636E+00
 MRCHDU: Convergence failed at  90  side 2    Res =  0.1112E+00
 Side 1 forced transition at x/c =  1.0000   72
 Side 2  free  transition at x/c =  0.1910   40

  12   rms: 0.4210E+00   max: -.2301E+01   T at   40  2   RLX: 0.217
       a = -7.000      CL = -0.9794
      Cm =  0.0895     CD =  0.04525   =>   CDf =  0.00641    CDp =  0.03884

 Side 1 forced transition at x/c =  1.0000   72
 Side 2  free  transition at x/c =  0.2078   41
 idif Ue xi dudx           1  0.12101223      3.20225954E-03   37.789639    
 Uenew xinew           2  8.72144010E-03  2.30789185E-04

  13   rms: 0.4491E+00   max: -.1422E+01   D at   50  2   RLX: 0.352
       a = -7.000      CL = -0.8490
      Cm =  0.0149     CD =  0.03904   =>   CDf =  0.00640    CDp =  0.03264

 Side 1 forced transition at x/c =  1.0000   71
 Side 2  free  transition at x/c =  0.2304   44

  14   rms: 0.8839E+01   max: -.2847E+02   D at   52  2   RLX: 0.018
       a = -7.000      CL = -0.8235
      Cm = -0.0322     CD =  0.02734   =>   CDf =  0.00663    CDp =  0.02071

 Side 1 forced transition at x/c =  1.0000   71
 Side 2  free  transition at x/c =  0.2297   44

  15   rms: 0.3374E+01   max: 0.1131E+02   D at   46  2   RLX: 0.054
       a = -7.000      CL = -0.8029
      Cm = -0.0107     CD =  0.03920   =>   CDf =  0.00676    CDp =  0.03244

 Side 1 forced transition at x/c =  1.0000   71
 Side 2  free  transition at x/c =  0.2442   44

  16   rms: 0.5993E+00   max: -.2114E+01   D at   60  2   RLX: 0.236
       a = -7.000      CL = -0.8019
      Cm = -0.0275     CD =  0.02954   =>   CDf =  0.00671    CDp =  0.02283

 Side 1 forced transition at x/c =  1.0000   71
 Side 2  free  transition at x/c =  0.2288   43

  17   rms: 0.2345E+00   max: 0.9234E+00   T at   43  2   RLX: 0.546
       a = -7.000      CL = -0.7580
      Cm = -0.0300     CD =  0.02992   =>   CDf =  0.00761    CDp =  0.02231

 Side 1 forced transition at x/c =  1.0000   71
 Side 2  free  transition at x/c =  0.2061   42

  18   rms: 0.1119E+00   max: -.5112E+00   D at   77  2   RLX: 0.978
       a = -7.000      CL = -0.7665
      Cm = -0.0086     CD =  0.02904   =>   CDf =  0.00948    CDp =  0.01956

 Side 1 forced transition at x/c =  1.0000   72
 Side 2  free  transition at x/c =  0.1953   40

  19   rms: 0.2713E-01   max: -.1402E+00   D at   76  2
       a = -7.000      CL = -0.7686
      Cm = -0.0059     CD =  0.03021   =>   CDf =  0.01039    CDp =  0.01981

 Side 1 forced transition at x/c =  1.0000   72
 Side 2  free  transition at x/c =  0.1951   40

  20   rms: 0.1529E-02   max: 0.1346E-01   D at   42  2
       a = -7.000      CL = -0.7685
      Cm = -0.0059     CD =  0.03028   =>   CDf =  0.01045    CDp =  0.01983

 Side 1 forced transition at x/c =  1.0000   72
 Side 2  free  transition at x/c =  0.1950   40

  21   rms: 0.1427E-04   max: -.1059E-03   T at   40  2
       a = -7.000      CL = -0.7685
      Cm = -0.0059     CD =  0.03028   =>   CDf =  0.01045    CDp =  0.01983
 plradd ia,ip,cpol            7          71  5.07815881E-03

 Point added to stored polar  1
 Save file unspecified or not available
 Dump file unspecified or not available

.OPERva   c>  
.OPERva   c>  
.OPERva   c>   Calculating wake trajectory ...
 Calculating source influence matrix ...

 Solving BL system ...

 Side 1 forced transition at x/c =  1.0000   72
 Side 2  free  transition at x/c =  0.1950   40
 idif Ue xi dudx           1  0.16540702      4.46909666E-03   37.011288    
 Uenew xinew           2  5.54290786E-02  1.49762630E-03

   1   rms: 0.2157E+00   max: 0.1856E+01   T at   40  2   RLX: 0.597
       a = -8.000      CL = -0.8083
      Cm = -0.0108     CD =  0.03445   =>   CDf =  0.01030    CDp =  0.02415

 Side 1 forced transition at x/c =  1.0000   71
 Side 2  free  transition at x/c =  0.1665   39

   2   rms: 0.7222E-01   max: 0.7349E+00   T at   39  2   RLX: 0.976
       a = -8.000      CL = -0.8247
      Cm = -0.0139     CD =  0.03853   =>   CDf =  0.00923    CDp =  0.02930

 Side 1 forced transition at x/c =  1.0000   71
 Side 2  free  transition at x/c =  0.1533   39
 idif Ue xi dudx           1  0.12621461      3.82691622E-03   32.980762    
 Uenew xinew           2  1.96580663E-02  5.96046448E-04

   3   rms: 0.2609E+00   max: -.8599E+00   D at   46  2   RLX: 0.581
       a = -8.000      CL = -0.8712
      Cm = -0.0095     CD =  0.03924   =>   CDf =  0.00845    CDp =  0.03080

 Side 1 forced transition at x/c =  1.0000   70
 Side 2  free  transition at x/c =  0.1498   39

   4   rms: 0.4479E-01   max: 0.2753E+00   D at   40  2
       a = -8.000      CL = -0.8533
      Cm = -0.0101     CD =  0.03742   =>   CDf =  0.00971    CDp =  0.02771

 Side 1 forced transition at x/c =  1.0000   71
 Side 2  free  transition at x/c =  0.1512   38

   5   rms: 0.2535E-01   max: -.4315E+00   T at    2  1
       a = -8.000      CL = -0.8475
      Cm = -0.0109     CD =  0.03773   =>   CDf =  0.01005    CDp =  0.02767

 Side 1 forced transition at x/c =  1.0000   71
 Side 2  free  transition at x/c =  0.1516   38

   6   rms: 0.2773E-02   max: -.3863E-01   D at    4  1
       a = -8.000      CL = -0.8474
      Cm = -0.0109     CD =  0.03771   =>   CDf =  0.01014    CDp =  0.02758

 Side 1 forced transition at x/c =  1.0000   71
 Side 2  free  transition at x/c =  0.1517   38

   7   rms: 0.1862E-04   max: 0.2296E-03   D at    8  1
       a = -8.000      CL = -0.8474
      Cm = -0.0109     CD =  0.03771   =>   CDf =  0.01014    CDp =  0.02757
 plradd ia,ip,cpol            8          70  3.59917828E-03

 Point added to stored polar  1
 Save file unspecified or not available
 Dump file unspecified or not available

.OPERva   c>  
.OPERva   c>  
.OPERva   c>   Calculating wake trajectory ...
 Calculating source influence matrix ...

 Solving BL system ...

 Side 1 forced transition at x/c =  1.0000   71
 Side 2  free  transition at x/c =  0.1517   38
 idif Ue xi dudx           1  0.14574623      4.51362133E-03   32.290310    
 Uenew xinew           2  4.14204448E-02  1.28275156E-03

   1   rms: 0.2258E+00   max: 0.1243E+01   T at   38  2   RLX: 0.669
       a = -9.000      CL = -0.8710
      Cm = -0.0185     CD =  0.04441   =>   CDf =  0.00996    CDp =  0.03445

 Side 1 forced transition at x/c =  1.0000   70
 Side 2  free  transition at x/c =  0.1382   39

   2   rms: 0.3910E+00   max: -.2151E+01   T at   39  2   RLX: 0.232
       a = -9.000      CL = -0.8067
      Cm = -0.0218     CD =  0.05806   =>   CDf =  0.00799    CDp =  0.05006

 Side 1 forced transition at x/c =  1.0000   71
 Side 2  free  transition at x/c =  0.1449   38
 idif Ue xi dudx           1  0.15717784      4.98265028E-03   31.545027    
 Uenew xinew           2  5.52599616E-02  1.75178051E-03

   3   rms: 0.2464E+00   max: 0.9320E+00   T at   38  2   RLX: 0.686
       a = -9.000      CL = -0.8708
      Cm = -0.0235     CD =  0.05039   =>   CDf =  0.00666    CDp =  0.04373

 Side 1 forced transition at x/c =  1.0000   70
 Side 2  free  transition at x/c =  0.1360   38

   4   rms: 0.1222E+00   max: -.4108E+00   D at   75  2
       a = -9.000      CL = -0.8833
      Cm = -0.0212     CD =  0.04933   =>   CDf =  0.00753    CDp =  0.04180

 Side 1 forced transition at x/c =  1.0000   70
 Side 2  free  transition at x/c =  0.1329   38

   5   rms: 0.2999E-01   max: -.1126E+00   D at   79  2
       a = -9.000      CL = -0.8881
      Cm = -0.0185     CD =  0.04924   =>   CDf =  0.00832    CDp =  0.04092

 Side 1 forced transition at x/c =  1.0000   70
 Side 2  free  transition at x/c =  0.1326   38

   6   rms: 0.8310E-03   max: -.4721E-02   D at   41  2
       a = -9.000      CL = -0.8877
      Cm = -0.0184     CD =  0.04923   =>   CDf =  0.00854    CDp =  0.04069

 Side 1 forced transition at x/c =  1.0000   70
 Side 2  free  transition at x/c =  0.1326   38

   7   rms: 0.3146E-04   max: 0.1790E-03   D at   91  2
       a = -9.000      CL = -0.8877
      Cm = -0.0184     CD =  0.04923   =>   CDf =  0.00854    CDp =  0.04069
 plradd ia,ip,cpol            9          69  3.59917828E-03

 Point added to stored polar  1
 Save file unspecified or not available
 Dump file unspecified or not available

.OPERva   c>  
.OPERva   c>  
.OPERva   c>   Calculating wake trajectory ...
 Calculating source influence matrix ...

 Solving BL system ...

 Side 1 forced transition at x/c =  1.0000   70
 Side 2  free  transition at x/c =  0.1326   38
 idif Ue xi dudx           1  0.10496771      3.64828110E-03   28.771826    
 Uenew xinew           2  3.17434361E-03  1.10328197E-04

   1   rms: 0.1984E+00   max: 0.5615E+00   D at   79  2
       a =-10.000      CL = -0.8862
      Cm = -0.0278     CD =  0.06421   =>   CDf =  0.00834    CDp =  0.05587

 Side 1 forced transition at x/c =  1.0000   69
 Side 2  free  transition at x/c =  0.1282   39

   2   rms: 0.2790E+00   max: -.3448E+01   T at    2  2   RLX: 0.145
       a =-10.000      CL = -0.8854
      Cm = -0.0181     CD =  0.06416   =>   CDf =  0.00725    CDp =  0.05691

 Side 1 forced transition at x/c =  1.0000   70
 Side 2  free  transition at x/c =  0.1298   38

   3   rms: 0.5065E-01   max: -.2607E+00   T at    2  1
       a =-10.000      CL = -0.8305
      Cm = -0.0243     CD =  0.06888   =>   CDf =  0.00693    CDp =  0.06195

 Side 1 forced transition at x/c =  1.0000   70
 Side 2  free  transition at x/c =  0.1316   38

   4   rms: 0.1322E-01   max: -.3788E-01   D at  106  2
       a =-10.000      CL = -0.8356
      Cm = -0.0250     CD =  0.06812   =>   CDf =  0.00706    CDp =  0.06106

 Side 1 forced transition at x/c =  1.0000   70
 Side 2  free  transition at x/c =  0.1309   38

   5   rms: 0.1363E-02   max: -.6029E-02   D at  105  2
       a =-10.000      CL = -0.8368
      Cm = -0.0249     CD =  0.06826   =>   CDf =  0.00710    CDp =  0.06117

 Side 1 forced transition at x/c =  1.0000   70
 Side 2  free  transition at x/c =  0.1309   38

   6   rms: 0.5218E-04   max: 0.3000E-03   D at  105  2
       a =-10.000      CL = -0.8367
      Cm = -0.0249     CD =  0.06826   =>   CDf =  0.00709    CDp =  0.06117
 plradd ia,ip,cpol           10          69  2.37795175E-03

 Point added to stored polar  1
 Save file unspecified or not available
 Dump file unspecified or not available

.OPERva   c>  
.OPERva   c>  
.OPERva   c>  
        airfoil                    Re           Mach       Ncrit  XtripT  XtripB     file
       ------------------------  ------------  ----------  -----  ------  ------    -------------------
 >  1  NACA 0012                 6.000e4       0.000        9.00   1.000   1.000    

Enter polar output filename   s>  
.OPERva   c>  
 ==============================================================
 Polar  1
  
       XFOIL         Version 6.99
  
 Calculated polar for: NACA 0012                                       
  
 1 1 Reynolds number fixed          Mach number fixed         
  
 xtrf =   1.000 (top)        1.000 (bottom)  
 Mach =   0.000     Re =     0.060 e 6     Ncrit =   9.000
  
   alpha    CL        CD       CDp       CM     Top_Xtr  Bot_Xtr
  ------ -------- --------- --------- -------- -------- --------
  -1.000   0.0021   0.02069   0.01174  -0.0100   1.0000   0.9909
  -2.000  -0.3188   0.02121   0.01283   0.0305   1.0000   0.8935
  -3.000  -0.4627   0.01982   0.01167   0.0299   1.0000   0.7608
  -4.000  -0.5420   0.02004   0.01153   0.0185   1.0000   0.6112
  -5.000  -0.6171   0.02160   0.01236   0.0085   1.0000   0.4428
  -6.000  -0.6891   0.02499   0.01492   0.0001   1.0000   0.2842
  -7.000  -0.7685   0.03028   0.01983  -0.0059   1.0000   0.1950
  -8.000  -0.8474   0.03771   0.02757  -0.0109   1.0000   0.1517
  -9.000  -0.8877   0.04923   0.04069  -0.0184   1.0000   0.1326
 -10.000  -0.8367   0.06826   0.06117  -0.0249   1.0000   0.1309

.OPERva   c>  
 XFOIL   c>  